<?xml version="1.0" encoding="UTF-8"?>

<!-- generated on 2024-03-20 14:55:55 by Eclipse SUMO netedit Version 1.19.0
<configuration xmlns:xsi="http://www.w3.org/2001/XMLSchema-instance" xsi:noNamespaceSchemaLocation="http://sumo.dlr.de/xsd/neteditConfiguration.xsd">

    <input>
        <sumo-net-file value="/home/mtl/Downloads/mcity_new.net.xml"/>
    </input>

    <output>
        <output-file value="/home/mtl/Downloads/mcity_new.net.xml"/>
    </output>

    <processing>
        <geometry.min-radius.fix.railways value="false"/>
        <geometry.max-grade.fix value="false"/>
        <offset.disable-normalization value="true"/>
        <lefthand value="0"/>
    </processing>

    <junctions>
        <no-turnarounds value="true"/>
        <junctions.corner-detail value="0"/>
        <junctions.limit-turn-speed value="-1.00"/>
        <rectangular-lane-cut value="0"/>
    </junctions>

    <pedestrian>
        <walkingareas value="0"/>
    </pedestrian>

</configuration>
-->

<net version="1.16" xmlns:xsi="http://www.w3.org/2001/XMLSchema-instance" xsi:noNamespaceSchemaLocation="http://sumo.dlr.de/xsd/net_file.xsd">

    <location netOffset="0.00,0.00" convBoundary="0.00,-170.00,215.00,240.00" origBoundary="0.00,0.00,0.00,0.00" projParameter="+proj=tmerc +lat_0=42.3005934157 +lon_0=-83.699283188811 +ellps=WGS84 +datum=WGS84 +units=m +no_defs"/>

    <edge id=":NODE_1_0" function="internal">
        <lane id=":NODE_1_0_0" index="0" speed="7.00" length="36.77" width="5.00" shape="141.42211104554568,-84.78779402831307,270.45172119140625 139.44315194795368,-87.9915121034366,270.34588623046875 136.8663685530818,-90.95412243682198,270.2135314941406 132.98034329165978,-94.8985519809339,270.0653991699219 125.71891157776145,-100.91066050795035,269.89324951171875 115.12012242890923,-110.18959373277214,269.4994812011719"/>
        <lane id=":NODE_1_0_1" index="1" speed="7.00" length="42.15" width="5.00" shape="145.22448142325072,-84.82719183452292,270.4515686035156 145.27123482485038,-87.24642180284266,270.3912048339844 144.66686514003322,-89.63629717495049,270.3314514160156 143.4150136859936,-92.42682915262844,270.2613830566406 141.67763268799436,-95.36280525552978,270.1876220703125 137.409177336103,-99.5494370846444,269.9955749511719 130.3633336419536,-103.84420097339152,269.8278503417969 122.26427873420216,-107.73225318326301,269.6523132324219 115.12012242890923,-110.18959373277214,269.4994812011719"/>
    </edge>
    <edge id=":NODE_1_2" function="internal">
        <lane id=":NODE_1_2_0" index="0" speed="6.00" length="24.62" width="5.00" shape="137.97969409778872,-111.22478047477577,269.6906433105469 132.606118454078,-107.69419293633642,269.7117004394531 127.5993854828858,-106.58268186732147,269.7462463378906 121.29465170434881,-107.75301642142716,269.6446228027344 115.12012242890923,-110.18959373277214,269.4994812011719"/>
    </edge>
    <edge id=":NODE_10_0" function="internal">
        <lane id=":NODE_10_0_0" index="0" speed="6.00" length="21.18" width="4.38" shape="110.27013341520565,107.6007159775147,274.93536376953125 109.59750837749223,101.68763713419173,274.62469482421875 107.70053339614321,96.84603554065869,274.3285217285156 104.59982853353253,93.05655965984717,274.0688781738281 100.27477398100919,90.33856111167509,273.88092041015625"/>
    </edge>
    <edge id=":NODE_10_1" function="internal">
        <lane id=":NODE_10_1_0" index="0" speed="7.00" length="29.43" width="3.65" shape="110.27013341520565,107.6007159775147,274.93536376953125 108.4405202785536,78.25403217688697,273.79229736328125"/>
    </edge>
    <edge id=":NODE_10_2" function="internal">
        <lane id=":NODE_10_2_0" index="0" speed="5.00" length="24.90" width="4.38" shape="120.51247723893329,104.78479130109908,275.0544738769531 116.30383974257045,101.55033303192789,274.78326416015625 110.60021886081749,97.19812220054531,274.4246520996094 104.80063749126134,93.03292269514235,274.0754699707031 100.27477398100919,90.33856111167509,273.88092041015625"/>
    </edge>
    <edge id=":NODE_10_3" function="internal">
        <lane id=":NODE_10_3_0" index="0" speed="6.00" length="29.76" width="3.65" shape="120.51247723893329,104.78479130109908,275.0544738769531 116.28240352694779,100.01920191144701,274.7402648925781 112.38475717452262,92.97348614280963,274.2642822265625 109.53080042823748,85.19066108000688,274.00445556640625 108.4405202785536,78.25403217688697,273.79229736328125"/>
    </edge>
    <edge id=":NODE_10_4" function="internal">
        <lane id=":NODE_10_4_0" index="0" speed="6.00" length="25.73" width="3.27" shape="115.0418493580552,78.27344255339288,273.79425048828125 115.4881646374553,86.59005067227355,274.0600280761719 116.88520695910408,93.31634894671843,274.2906799316406 119.2329765183355,98.45233744470661,274.790771484375 122.54083220811825,102.01831903234456,275.0633850097656"/>
    </edge>
    <edge id=":NODE_10_5" function="internal">
        <lane id=":NODE_10_5_0" index="0" speed="7.00" length="29.44" width="3.46" shape="115.0418493580552,78.27344255339288,273.79425048828125 114.52900520465404,107.67583697985712,274.9486999511719"/>
    </edge>
    <edge id=":NODE_10_6" function="internal">
        <lane id=":NODE_10_6_0" index="0" speed="5.00" length="21.48" width="4.38" shape="112.02114412732033,78.26761926610308,273.7934265136719 111.27162829350323,85.49597292282995,274.0169677734375 109.07072309266417,89.91745915725528,274.1484375 105.39844300832432,91.53144379038294,274.0722961425781 100.27477398100919,90.33856111167509,273.88092041015625"/>
    </edge>
    <edge id=":NODE_10_7" function="internal">
        <lane id=":NODE_10_7_0" index="0" speed="6.00" length="12.92" width="3.65" shape="102.03044791496589,86.39309184801338,273.8791198730469 104.82449693913487,86.92187942501207,273.9801940917969 106.8224208782779,85.74491013712174,274.00799560546875 108.0245367557283,82.85219106399596,273.9312744140625 108.4405202785536,78.25403217688697,273.79229736328125"/>
    </edge>
    <edge id=":NODE_10_8" function="internal">
        <lane id=":NODE_10_8_0" index="0" speed="5.00" length="25.81" width="3.27" shape="102.03044791496589,86.39309184801338,273.8791198730469 106.60088551961954,89.25891782701251,274.0807189941406 112.49707122358633,93.84730637358174,274.29736328125 118.27762774137793,98.61207922538885,274.7855224609375 122.54083220811825,102.01831903234456,275.0633850097656"/>
    </edge>
    <edge id=":NODE_10_9" function="internal">
        <lane id=":NODE_10_9_0" index="0" speed="6.00" length="25.70" width="3.46" shape="102.03044791496589,86.39309184801338,273.8791198730469 106.7039946785735,89.79234575681663,274.10028076171875 110.73580557587356,95.1318144966739,274.3407897949219 113.53707872419263,101.42252896766415,274.6533203125 114.52900520465404,107.67583697985712,274.9486999511719"/>
    </edge>
    <edge id=":NODE_11_0" function="internal">
        <lane id=":NODE_11_0_0" index="0" speed="4.00" length="34.92" width="2.90" shape="111.5356171435247,57.31604526300709,273.2132263183594 112.55439209336653,45.38484738956515,272.94439697265625 115.47487991083739,36.88498522513718,272.7788391113281 120.29771532118231,31.796472880170352,272.7967834472656 127.03225748981257,30.139613302204427,272.9305419921875"/>
    </edge>
    <edge id=":NODE_11_1" function="internal">
        <lane id=":NODE_11_1_0" index="0" speed="4.00" length="32.84" width="2.90" shape="111.5356171435247,57.31604526300709,273.2132263183594 112.54235259722796,46.39476299713565,272.96539306640625 115.45967928690204,38.625015671145306,272.811767578125 120.28759770200178,34.00680317386193,272.83740234375 127.01611535188594,32.53980852023449,272.9853820800781"/>
    </edge>
    <edge id=":NODE_11_2" function="internal">
        <lane id=":NODE_11_2_0" index="0" speed="5.00" length="19.83" width="3.65" shape="126.93413585880586,44.58075616501782,273.2247314453125 121.77797950383516,45.35742449832538,273.08160400390625 118.09127716727413,47.741179428865685,273.0167236328125 115.87402869434213,51.73202092406544,273.0841064453125 115.11624104139538,57.32963194010001,273.2138366699219"/>
    </edge>
    <edge id=":NODE_11_3" function="internal">
        <lane id=":NODE_11_3_0" index="0" speed="4.00" length="24.77" width="5.00" shape="126.93413585880586,44.58075616501782,273.2247314453125 102.17765503404904,45.185623954722026,272.8450012207031"/>
    </edge>
    <edge id=":NODE_11_4" function="internal">
        <lane id=":NODE_11_4_0" index="0" speed="4.50" length="16.82" width="3.46" shape="126.95091231813932,42.16057517073341,273.1736145019531 118.66964413330818,40.54740655073716,272.8897705078125 112.74141243194995,35.70792915557347,272.75653076171875 112.44225037602651,35.048244990716455,272.7440490722656"/>
    </edge>
    <edge id=":NODE_11_15" function="internal">
        <lane id=":NODE_11_15_0" index="0" speed="4.50" length="19.44" width="3.46" shape="112.44225037602651,35.048244990716455,272.7440490722656 109.16589965195931,27.652136008973628,272.6044616699219 107.94310522626292,16.380027008969005,272.40020751953125"/>
    </edge>
    <edge id=":NODE_11_5" function="internal">
        <lane id=":NODE_11_5_0" index="0" speed="4.50" length="20.90" width="2.90" shape="114.79584176901358,16.35739773150322,272.40093994140625 115.62581911147042,22.3554927166843,272.5052490234375 117.9502609809337,26.650492383802067,272.6053771972656 121.74886470240688,29.2517554919097,272.7811584472656 127.03225748981257,30.139613302204427,272.9305419921875"/>
    </edge>
    <edge id=":NODE_11_6" function="internal">
        <lane id=":NODE_11_6_0" index="0" speed="4.50" length="22.86" width="2.90" shape="114.79584176901358,16.35739773150322,272.40093994140625 115.64344131840416,23.376352466005763,272.5244140625 117.95441206370405,28.41114278506069,272.64984130859375 121.74874000122153,31.462402885367023,272.8307800292969 127.01611535188594,32.53980852023449,272.9853820800781"/>
    </edge>
    <edge id=":NODE_11_7" function="internal">
        <lane id=":NODE_11_7_0" index="0" speed="6.50" length="40.99" width="3.65" shape="114.79584176901358,16.35739773150322,272.40093994140625 115.11624104139538,57.32963194010001,273.2138366699219"/>
    </edge>
    <edge id=":NODE_11_8" function="internal">
        <lane id=":NODE_11_8_0" index="0" speed="5.50" length="32.59" width="5.00" shape="111.69455932582598,16.369024593564774,272.400634765625 111.13198079686525,29.054915924205797,272.6307678222656 109.3551311314169,38.081210827686306,272.80133056640625 106.37368671217293,43.45821917683046,272.9123229980469 102.17765503404904,45.185623954722026,272.8450012207031"/>
    </edge>
    <edge id=":NODE_11_9" function="internal">
        <lane id=":NODE_11_9_0" index="0" speed="5.50" length="18.33" width="3.46" shape="102.13510782333425,32.34049092161436,272.60601806640625 104.6985037650632,31.311502195226357,272.5993957519531 106.51462389240973,28.298224364172697,272.6130065917969 107.60250261324582,23.331270233238754,272.5247497558594 107.94310522626292,16.380027008969005,272.40020751953125"/>
    </edge>
    <edge id=":NODE_11_10" function="internal">
        <lane id=":NODE_11_10_0" index="0" speed="4.00" length="25.00" width="2.90" shape="102.13510782333425,32.34049092161436,272.60601806640625 127.03225748981257,30.139613302204427,272.9305419921875"/>
    </edge>
    <edge id=":NODE_11_11" function="internal">
        <lane id=":NODE_11_11_0" index="0" speed="4.00" length="24.89" width="2.90" shape="102.13510782333425,32.34049092161436,272.60601806640625 127.01611535188594,32.53980852023449,272.9853820800781"/>
    </edge>
    <edge id=":NODE_11_12" function="internal">
        <lane id=":NODE_11_12_0" index="0" speed="6.00" length="15.02" width="3.65" shape="102.13510782333425,32.34049092161436,272.60601806640625 107.8497891608958,33.82220474704709,272.720703125 111.91315610789067,38.48247309431885,272.8089904785156 112.78464154005047,41.2809422276677,272.8623046875"/>
    </edge>
    <edge id=":NODE_11_16" function="internal">
        <lane id=":NODE_11_16_0" index="0" speed="6.00" length="16.32" width="3.65" shape="112.78464154005047,41.2809422276677,272.8623046875 114.33551828128115,46.311620257563675,272.96368408203125 115.11624104139538,57.32963194010001,273.2138366699219"/>
    </edge>
    <edge id=":NODE_11_13" function="internal">
        <lane id=":NODE_11_13_0" index="0" speed="6.00" length="15.17" width="5.00" shape="108.51491198083377,57.31022231844518,273.2128601074219 108.1314544344679,52.05651086240601,273.0890197753906 106.95096804229522,48.27795107914097,273.00531005859375 104.96282586679752,45.994211681960664,272.9576721191406 102.17765503404904,45.185623954722026,272.8450012207031"/>
    </edge>
    <edge id=":NODE_11_14" function="internal">
        <lane id=":NODE_11_14_0" index="0" speed="6.50" length="40.95" width="3.46" shape="108.51491198083377,57.31022231844518,273.2128601074219 107.94310522626292,16.380027008969005,272.40020751953125"/>
    </edge>
    <edge id=":NODE_12_0" function="internal">
        <lane id=":NODE_12_0_0" index="0" speed="6.00" length="13.68" width="3.65" shape="107.84192958449455,-12.901807543577396,271.92791748046875 107.29813282109603,-16.570137869594333,271.873046875 105.69082434707468,-19.191895625549627,271.78857421875 103.01001135231259,-20.767397876511367,271.6508483886719 99.26536971593727,-21.2863346809682,271.5802917480469"/>
    </edge>
    <edge id=":NODE_12_1" function="internal">
        <lane id=":NODE_12_1_0" index="0" speed="6.00" length="23.80" width="3.46" shape="107.84192958449455,-12.901807543577396,271.92791748046875 107.41646351188528,-36.69231115226319,271.5671081542969"/>
    </edge>
    <edge id=":NODE_12_2" function="internal">
        <lane id=":NODE_12_2_0" index="0" speed="4.50" length="20.84" width="3.65" shape="114.25460450798535,-36.88545563260708,271.5650329589844 114.36390050952915,-16.055852639448567,271.88037109375"/>
    </edge>
    <edge id=":NODE_12_3" function="internal">
        <lane id=":NODE_12_3_0" index="0" speed="5.00" length="7.14" width="3.65" shape="111.13079971871102,-36.7945189345959,271.5660400390625 110.33559963974179,-30.017747300124032,271.6711120605469 110.2064897586925,-29.73175855362022,271.6754150390625"/>
    </edge>
    <edge id=":NODE_12_6" function="internal">
        <lane id=":NODE_12_6_0" index="0" speed="5.00" length="14.96" width="3.65" shape="110.2064897586925,-29.73175855362022,271.6754150390625 108.1010771656114,-25.167199873735644,271.7439880371094 104.40788088757748,-22.263496629800347,271.68548583984375 99.26536971593727,-21.2863346809682,271.5802917480469"/>
    </edge>
    <edge id=":NODE_12_4" function="internal">
        <lane id=":NODE_12_4_0" index="0" speed="6.00" length="15.79" width="3.46" shape="99.25991043023896,-25.5277569554639,271.58050537109375 102.96329250483114,-26.23048884037342,271.6477966308594 105.56029835227702,-28.318724215252722,271.6846618652344 107.04156914752704,-31.81276594550016,271.64422607421875 107.41646351188528,-36.69231115226319,271.5671081542969"/>
    </edge>
    <edge id=":NODE_12_5" function="internal">
        <lane id=":NODE_12_5_0" index="0" speed="5.50" length="19.98" width="3.65" shape="99.25991043023896,-25.5277569554639,271.58050537109375 105.81318697018565,-24.93970709476226,271.7275390625 110.50844089117889,-23.17024759915892,271.7738342285156 113.35534782435676,-20.209068463412127,271.8180847167969 114.36390050952915,-16.055852639448567,271.88037109375"/>
    </edge>
    <edge id=":NODE_13_0" function="internal">
        <lane id=":NODE_13_0_0" index="0" speed="5.50" length="21.31" width="4.20" shape="68.85188097313409,119.14025319298885,274.3508605957031 65.17081136559754,116.3026476443368,274.001953125 59.966701494250884,113.54675267599737,273.84912109375 54.52292578799095,111.09334425337252,273.80975341796875 50.1522030247984,109.18413526233856,273.6966857910156"/>
    </edge>
    <edge id=":NODE_13_1" function="internal">
        <lane id=":NODE_13_1_0" index="0" speed="5.00" length="12.19" width="4.20" shape="60.67306651198686,105.78687584073182,273.71441650390625 58.41122466350317,108.34587940802416,273.77947998046875 55.89541986037335,109.76649171616285,273.785400390625 53.145637908054745,110.04934697459298,273.7561950683594 50.1522030247984,109.18413526233856,273.6966857910156"/>
    </edge>
    <edge id=":NODE_14_0" function="internal">
        <lane id=":NODE_14_0_0" index="0" speed="5.50" length="16.00" width="3.27" shape="46.17421035743806,106.87726743710813,273.4290466308594 42.995014125565866,104.61575227960195,273.1032409667969 39.53252930389844,102.45528052115283,272.91448974609375 35.99692350579907,100.3925180617462,272.94488525390625 32.60772304160179,98.44443364552235,272.8898010253906"/>
    </edge>
    <edge id=":NODE_14_1" function="internal">
        <lane id=":NODE_14_1_0" index="0" speed="5.00" length="15.91" width="4.20" shape="46.17421035743806,106.87726743710813,273.4290466308594 43.06447456439175,103.68768261569447,273.06494140625 41.73045470141569,100.33437852554636,272.91217041015625 42.18182651524414,96.82766503948795,272.8125 44.409231293527384,93.14723920643893,272.8158264160156"/>
    </edge>
    <edge id=":NODE_14_2" function="internal">
        <lane id=":NODE_14_2_0" index="0" speed="5.50" length="12.13" width="4.20" shape="33.96196091731802,96.11670763021827,272.85821533203125 36.4855763300551,97.2871053687579,272.89178466796875 39.06976437766376,97.17904846708359,272.76666259765625 41.714207973485635,95.80252975277861,272.7793273925781 44.409231293527384,93.14723920643893,272.8158264160156"/>
    </edge>
    <edge id=":NODE_15_0" function="internal">
        <lane id=":NODE_15_0_0" index="0" speed="5.00" length="14.56" width="3.65" shape="64.39867071998205,74.4358304001704,272.7843017578125 60.45194333448596,73.35031445345167,272.7637634277344 57.903931050382155,74.20974040782731,272.7794494628906 56.744957982685925,77.00379824106076,272.8158264160156 56.97470692978305,81.74248086287673,272.9268798828125"/>
    </edge>
    <edge id=":NODE_15_1" function="internal">
        <lane id=":NODE_15_1_0" index="0" speed="5.00" length="10.83" width="4.38" shape="56.3124022408388,66.0468522664199,272.7492980957031 57.69809785498544,67.1411307191513,272.74578857421875 60.81209133061879,68.6203467791982,272.7349853515625 64.09976885763405,69.98503870849704,272.74273681640625 65.99620657580613,70.74542049255321,272.7831115722656"/>
    </edge>
    <edge id=":NODE_15_2" function="internal">
        <lane id=":NODE_15_2_0" index="0" speed="5.00" length="15.74" width="3.65" shape="56.3124022408388,66.0468522664199,272.7492980957031 56.30992276428398,69.90790991346871,272.7870178222656 56.35265136702996,73.92044621520081,272.79168701171875 56.53623148911822,77.90744304568861,272.83306884765625 56.97470692978305,81.74248086287673,272.9268798828125"/>
    </edge>
    <edge id=":NODE_16_0" function="internal">
        <lane id=":NODE_16_0_0" index="0" speed="5.00" length="6.97" width="4.20" shape="57.6534728912797,84.62486073940923,273.0250549316406 58.14997459564832,86.6312010812297,273.07696533203125 58.50624937577346,88.01290936622773,273.11279296875 59.04493270863918,89.32038211185423,273.1502380371094 60.089294226468695,91.08403008975475,273.2336730957031"/>
    </edge>
    <edge id=":NODE_16_1" function="internal">
        <lane id=":NODE_16_1_0" index="0" speed="6.50" length="5.13" width="4.20" shape="55.789309292583,88.83696602924542,273.0706481933594 57.06808117739732,88.88754569227265,273.10174560546875 58.21584053045006,89.28407123441876,273.13519287109375 59.222911547415414,90.0162327007182,273.16845703125 60.089294226468695,91.08403008975475,273.2336730957031"/>
    </edge>
    <edge id=":NODE_17_0" function="internal">
        <lane id=":NODE_17_0_0" index="0" speed="5.00" length="15.72" width="3.46" shape="49.186709209310436,57.018157529212885,272.6463623046875 48.80912264574689,51.89467232495266,272.47821044921875 47.41371284016231,48.26934114934917,272.3741455078125 45.00047990009732,46.142164027186446,272.2574462890625 41.57941680255004,45.513458011494635,272.1876220703125"/>
    </edge>
    <edge id=":NODE_17_1" function="internal">
        <lane id=":NODE_17_1_0" index="0" speed="5.50" length="35.56" width="4.01" shape="49.186709209310436,57.018157529212885,272.6463623046875 48.9242891744198,21.469373053666967,271.9795837402344"/>
    </edge>
    <edge id=":NODE_17_2" function="internal">
        <lane id=":NODE_17_2_0" index="0" speed="5.00" length="28.19" width="3.83" shape="52.75829025017598,57.001448504118635,272.6422119140625 53.39846924809965,46.59869466119118,272.34100341796875 55.26543744581807,39.14572429518565,272.18585205078125 58.36950520640371,34.63286153382894,272.120849609375 62.70036284682976,33.06978222390198,272.1792297363281"/>
    </edge>
    <edge id=":NODE_17_3" function="internal">
        <lane id=":NODE_17_3_0" index="0" speed="5.00" length="15.62" width="3.65" shape="62.91276969684271,44.65993131103483,272.2624206542969 59.99882584635014,45.3877110530771,272.30157470703125 57.925417977136235,47.68261497807336,272.37213134765625 56.68255311587988,51.54432598554976,272.4814453125 56.27958986549101,56.99314694798582,272.64599609375"/>
    </edge>
    <edge id=":NODE_17_4" function="internal">
        <lane id=":NODE_17_4_0" index="0" speed="5.00" length="21.47" width="3.46" shape="62.91276969684271,44.65993131103483,272.2624206542969 41.57941680255004,45.513458011494635,272.1876220703125"/>
        <lane id=":NODE_17_4_1" index="1" speed="5.00" length="21.47" width="3.46" shape="62.91276969684271,44.65993131103483,272.2624206542969 58.86612297479385,44.20143097175018,272.2752990722656 54.08332759204311,43.29944846036405,272.2655334472656 48.357396428010325,42.487574900384594,272.2410583496094 41.50227942132637,42.27005687151506,272.1166076660156"/>
    </edge>
    <edge id=":NODE_17_6" function="internal">
        <lane id=":NODE_17_6_0" index="0" speed="5.50" length="25.89" width="4.01" shape="62.81831764024568,39.755491661768666,272.2062683105469 56.82558581856905,38.525031716902134,272.1767272949219 52.51400278135972,35.06724478701104,272.1204833984375 49.87357540805455,29.381813861552185,272.05718994140625 48.9242891744198,21.469373053666967,271.9795837402344"/>
    </edge>
    <edge id=":NODE_17_7" function="internal">
        <lane id=":NODE_17_7_0" index="0" speed="5.50" length="15.00" width="3.83" shape="56.049050903197745,21.385355038781135,271.9805908203125 56.51562304231432,26.5416727299003,272.0324401855469 57.76954758722647,30.21252918203517,272.0699462890625 59.83112749531705,32.388565687825,272.1576232910156 62.70036284682976,33.06978222390198,272.1792297363281"/>
    </edge>
    <edge id=":NODE_17_8" function="internal">
        <lane id=":NODE_17_8_0" index="0" speed="5.50" length="35.62" width="3.65" shape="56.049050903197745,21.385355038781135,271.9805908203125 56.27958986549101,56.99314694798582,272.64599609375"/>
    </edge>
    <edge id=":NODE_17_9" function="internal">
        <lane id=":NODE_17_9_0" index="0" speed="5.50" length="29.26" width="3.46" shape="52.746960567277675,21.420618818811906,271.9800720214844 52.20639474834104,31.836536360935558,272.0826110839844 50.168279553194395,39.32408780932096,272.1834716796875 46.62262250799025,43.88295598206096,272.2681579589844 41.57941680255004,45.513458011494635,272.1876220703125"/>
        <lane id=":NODE_17_9_1" index="1" speed="5.50" length="26.36" width="3.46" shape="52.746960567277675,21.420618818811906,271.9800720214844 52.18210424560018,30.395341744504556,272.0683898925781 50.11637411883322,36.861716735390594,272.1435852050781 46.559763388766115,40.82006078997525,272.2063293457031 41.50227942132637,42.27005687151506,272.1166076660156"/>
    </edge>
    <edge id=":NODE_17_11" function="internal">
        <lane id=":NODE_17_11_0" index="0" speed="5.50" length="13.27" width="4.01" shape="41.19897564919137,30.076848358683932,271.9081115722656 44.61526324872035,29.595075867987674,271.9698791503906 47.046521675556974,28.001729848244633,272.0422668457031 48.482757981289815,25.296493197564715,272.0159606933594 48.9242891744198,21.469373053666967,271.9795837402344"/>
    </edge>
    <edge id=":NODE_17_12" function="internal">
        <lane id=":NODE_17_12_0" index="0" speed="5.00" length="21.43" width="3.83" shape="41.28103283026209,33.480452671089665,272.0046691894531 62.70036284682976,33.06978222390198,272.1792297363281"/>
    </edge>
    <edge id=":NODE_17_13" function="internal">
        <lane id=":NODE_17_13_0" index="0" speed="5.00" length="28.25" width="3.65" shape="41.36277286540937,36.89404987197663,272.0760498046875 47.87132907703154,38.26091249521373,272.16326904296875 52.521882048729786,42.069555273404944,272.2377624511719 55.32474145121936,48.310302485105744,272.3881530761719 56.27958986549101,56.99314694798582,272.64599609375"/>
    </edge>
    <edge id=":NODE_18_0" function="internal">
        <lane id=":NODE_18_0_0" index="0" speed="5.50" length="12.92" width="3.46" shape="48.50549341109698,-12.303848873191209,271.7101745605469 48.01990532495746,-16.230407555316404,271.6940612792969 46.66780978700245,-19.014116516267006,271.6865234375 44.470143865838615,-20.684320235409416,271.7345275878906 41.40597062823268,-21.211674241166502,271.7195129394531"/>
    </edge>
    <edge id=":NODE_18_1" function="internal">
        <lane id=":NODE_18_1_0" index="0" speed="5.50" length="22.92" width="3.09" shape="48.50549341109698,-12.303848873191209,271.7101745605469 49.90144234435471,-35.1762975822615,271.65252685546875"/>
    </edge>
    <edge id=":NODE_18_2" function="internal">
        <lane id=":NODE_18_2_0" index="0" speed="6.00" length="5.96" width="3.65" shape="48.50549341109698,-12.303848873191209,271.7101745605469 49.428238078183504,-18.05627092107875,271.6888732910156 49.50167611575367,-18.16397307532103,271.6885070800781"/>
    </edge>
    <edge id=":NODE_18_15" function="internal">
        <lane id=":NODE_18_15_0" index="0" speed="6.00" length="17.44" width="3.65" shape="49.50167611575367,-18.16397307532103,271.6885070800781 52.349742174918646,-22.174809502707973,271.67816162109375 57.2896745911766,-24.648837634867245,271.66815185546875 64.22836687337735,-25.48898231847109,271.67791748046875"/>
    </edge>
    <edge id=":NODE_18_3" function="internal">
        <lane id=":NODE_18_3_0" index="0" speed="6.00" length="14.08" width="4.01" shape="64.24381901362052,-21.24724377907777,271.67791748046875 60.46493372801411,-20.68694915298305,271.6719970703125 57.78163395664155,-19.031579153942527,271.6722106933594 56.19328546229726,-16.261148034026462,271.6935729980469 55.69021236072609,-12.385965731205635,271.7089538574219"/>
        <lane id=":NODE_18_3_1" index="1" speed="6.00" length="17.06" width="4.01" shape="64.24381901362052,-21.24724377907777,271.67791748046875 58.89446574792732,-20.686766022288385,271.6673278808594 55.09037776460944,-19.01694439445631,271.6851806640625 52.84154781859392,-16.237461850340686,271.6941833496094 52.14797580239112,-12.348318348162708,271.7095642089844"/>
    </edge>
    <edge id=":NODE_18_5" function="internal">
        <lane id=":NODE_18_5_0" index="0" speed="5.50" length="22.84" width="3.46" shape="64.24381901362052,-21.24724377907777,271.67791748046875 41.40597062823268,-21.211674241166502,271.7195129394531"/>
    </edge>
    <edge id=":NODE_18_6" function="internal">
        <lane id=":NODE_18_6_0" index="0" speed="5.50" length="6.90" width="3.09" shape="64.24381901362052,-21.24724377907777,271.67791748046875 58.10944743076905,-22.1120870786881,271.6650695800781 57.50066936366784,-22.471503930958875,271.6653747558594"/>
    </edge>
    <edge id=":NODE_18_16" function="internal">
        <lane id=":NODE_18_16_0" index="0" speed="5.50" length="15.77" width="3.09" shape="57.50066936366784,-22.471503930958875,271.6653747558594 53.68097569245588,-24.72333126391117,271.67376708984375 50.93841783533556,-29.081610431601735,271.6701354980469 49.90144234435471,-35.1762975822615,271.65252685546875"/>
    </edge>
    <edge id=":NODE_18_7" function="internal">
        <lane id=":NODE_18_7_0" index="0" speed="6.00" length="15.12" width="3.65" shape="55.60816592307646,-35.33532144717067,271.64703369140625 55.9411709810724,-31.013486452568856,271.6691589355469 57.48424624690261,-27.943635180364375,271.67254638671875 60.24643346120426,-26.095471873137054,271.6734619140625 64.22836687337735,-25.48898231847109,271.67791748046875"/>
    </edge>
    <edge id=":NODE_18_8" function="internal">
        <lane id=":NODE_18_8_0" index="0" speed="6.00" length="23.13" width="4.01" shape="55.60816592307646,-35.33532144717067,271.64703369140625 55.69021236072609,-12.385965731205635,271.7089538574219"/>
        <lane id=":NODE_18_8_1" index="1" speed="6.00" length="23.13" width="4.01" shape="55.60816592307646,-35.33532144717067,271.64703369140625 54.92189696681378,-31.04582837332711,271.6692199707031 53.70237352980194,-25.71294369522062,271.67254638671875 52.57359333049535,-19.456908971877187,271.6844177246094 52.14797580239112,-12.348318348162708,271.7095642089844"/>
    </edge>
    <edge id=":NODE_18_10" function="internal">
        <lane id=":NODE_18_10_0" index="0" speed="5.50" length="11.08" width="3.46" shape="55.60816592307646,-35.33532144717067,271.64703369140625 54.42323368502234,-29.201103664836438,271.6700439453125 51.85243183288915,-25.101445846710014,271.67340087890625"/>
    </edge>
    <edge id=":NODE_18_17" function="internal">
        <lane id=":NODE_18_17_0" index="0" speed="5.50" length="11.44" width="3.46" shape="51.85243183288915,-25.101445846710014,271.67340087890625 51.66304761191398,-24.807366784119168,271.673828125 47.32729082411021,-22.144117965397598,271.6788330078125 41.40597062823268,-21.211674241166502,271.7195129394531"/>
    </edge>
    <edge id=":NODE_18_11" function="internal">