<?xml version="1.0" encoding="UTF-8"?>

<!-- generated on 2024-06-29 22:44:30 by Eclipse SUMO netedit Version 1.20.0
<configuration xmlns:xsi="http://www.w3.org/2001/XMLSchema-instance" xsi:noNamespaceSchemaLocation="http://sumo.dlr.de/xsd/neteditConfiguration.xsd">

    <input>
        <sumocfg-file value="town10-v2.sumocfg"/>
        <additional-files value="parking.add.xml"/>
        <route-files value="demand-ver2.rou.xml"/>
        <sumo-net-file value="Town10HD_modified_v1.net.xml"/>
    </input>

    <output>
        <output-file value="Town10HD_modified_v1.net.xml"/>
    </output>

    <processing>
        <geometry.min-radius.fix.railways value="false"/>
        <geometry.max-grade.fix value="false"/>
        <offset.disable-normalization value="true"/>
        <lefthand value="0"/>
    </processing>

    <junctions>
        <no-internal-links value="false"/>
        <no-turnarounds value="true"/>
        <junctions.corner-detail value="10"/>
        <junctions.internal-link-detail value="10"/>
        <junctions.limit-turn-speed value="5.50"/>
        <rectangular-lane-cut value="1"/>
    </junctions>

    <pedestrian>
        <walkingareas value="1"/>
    </pedestrian>

</configuration>
-->

<net version="1.20" junctionCornerDetail="10" junctionLinkDetail="10" rectangularLaneCut="true" walkingareas="true" limitTurnSpeed="5.50" xmlns:xsi="http://www.w3.org/2001/XMLSchema-instance" xsi:noNamespaceSchemaLocation="http://sumo.dlr.de/xsd/net_file.xsd">

    <location netOffset="0.00,0.00" convBoundary="-109.34,-135.96,104.73,63.48" origBoundary="0.000000,0.000000,0.000000,0.000000" projParameter="+proj=tmerc +lat_0=0 +lon_0=0 +k=1 +x_0=0 +y_0=0 +datum=WGS84 +units=m  +vunits=m +no_defs "/>

    <edge id=":0_0" function="internal">
        <lane id=":0_0_0" index="0" allow="pedestrian" speed="2.78" length="0.77" width="6.00" shape="117.35,22.07 117.36,22.99"/>
        <lane id=":0_0_1" index="1" disallow="all" speed="1.39" length="0.77" width="0.63" shape="114.04,22.13 114.04,22.96"/>
        <lane id=":0_0_2" index="2" disallow="all" speed="1.39" length="0.77" width="2.00" shape="112.72,22.16 112.73,22.95"/>
        <lane id=":0_0_3" index="3" disallow="pedestrian tram rail_urban rail rail_electric rail_fast ship" speed="13.89" length="0.77" width="3.50" shape="109.97,22.21 109.98,22.92"/>
        <lane id=":0_0_4" index="4" disallow="pedestrian tram rail_urban rail rail_electric rail_fast ship" speed="13.89" length="0.77" width="3.50" shape="106.48,22.28 106.48,22.89"/>
    </edge>
    <edge id=":0_5" function="internal">
        <lane id=":0_5_0" index="0" allow="pedestrian" speed="2.78" length="0.35" width="6.00" shape="92.10,22.74 92.10,22.55"/>
        <lane id=":0_5_1" index="1" disallow="all" speed="1.39" length="0.35" width="0.63" shape="95.41,22.78 95.41,22.48"/>
        <lane id=":0_5_2" index="2" disallow="all" speed="1.39" length="0.35" width="2.00" shape="96.73,22.79 96.73,22.46"/>
        <lane id=":0_5_3" index="3" disallow="pedestrian tram rail_urban rail rail_electric rail_fast ship" speed="13.89" length="0.35" width="3.50" shape="99.48,22.82 99.48,22.41"/>
        <lane id=":0_5_4" index="4" disallow="pedestrian tram rail_urban rail rail_electric rail_fast ship" speed="13.89" length="0.35" width="3.50" shape="102.98,22.85 102.98,22.34"/>
    </edge>
    <edge id=":0_w0" function="walkingarea">
        <lane id=":0_w0_0" index="0" allow="pedestrian" speed="2.78" length="0.92" width="6.00" shape="114.36,22.96 120.36,23.02 120.35,22.01 114.35,22.13"/>
    </edge>
    <edge id=":0_w1" function="walkingarea">
        <lane id=":0_w1_0" index="0" allow="pedestrian" speed="2.78" length="0.20" width="6.00" shape="95.10,22.49 89.10,22.60 89.10,22.72 95.10,22.76"/>
    </edge>
    <edge id=":1_0" function="internal">
        <lane id=":1_0_0" index="0" disallow="all" speed="1.39" length="30.91" width="2.50" shape="58.06,-63.32 27.15,-63.28"/>
    </edge>
    <edge id=":1_1" function="internal">
        <lane id=":1_1_0" index="0" disallow="pedestrian tram rail_urban rail rail_electric rail_fast ship" speed="10.01" length="5.90" width="3.50" shape="58.05,-66.32 55.15,-66.15 52.58,-65.63 52.23,-65.50"/>
    </edge>
    <edge id=":1_2" function="internal">
        <lane id=":1_2_0" index="0" disallow="pedestrian tram rail_urban rail rail_electric rail_fast ship" speed="13.89" length="30.91" width="3.50" shape="58.05,-66.32 27.14,-66.28"/>
    </edge>
    <edge id=":1_10" function="internal">
        <lane id=":1_10_0" index="0" disallow="pedestrian tram rail_urban rail rail_electric rail_fast ship" speed="10.01" length="16.55" width="3.50" shape="52.23,-65.50 50.34,-64.78 48.45,-63.59 46.89,-62.06 45.67,-60.19 44.78,-57.98 44.24,-55.43 44.03,-52.55"/>
    </edge>
    <edge id=":1_3" function="internal">
        <lane id=":1_3_0" index="0" allow="pedestrian" speed="2.78" length="30.91" width="6.00" shape="27.13,-77.66 58.04,-77.70"/>
        <lane id=":1_3_1" index="1" disallow="all" speed="1.39" length="30.91" width="0.63" shape="27.13,-74.34 58.04,-74.38"/>
        <lane id=":1_3_2" index="2" disallow="all" speed="1.39" length="30.91" width="2.50" shape="27.13,-72.78 58.04,-72.82"/>
        <lane id=":1_3_3" index="3" disallow="pedestrian tram rail_urban rail rail_electric rail_fast ship" speed="13.89" length="30.91" width="3.50" shape="27.14,-69.78 58.05,-69.82"/>
    </edge>
    <edge id=":1_7" function="internal">
        <lane id=":1_7_0" index="0" disallow="pedestrian tram rail_urban rail rail_electric rail_fast ship" speed="10.96" length="6.70" width="3.50" shape="27.14,-69.78 30.73,-69.57 33.77,-68.96"/>
    </edge>
    <edge id=":1_11" function="internal">
        <lane id=":1_11_0" index="0" disallow="pedestrian tram rail_urban rail rail_electric rail_fast ship" speed="10.96" length="21.05" width="3.50" shape="33.77,-68.96 33.89,-68.94 36.62,-67.88 38.93,-66.39 40.81,-64.47 42.25,-62.13 43.27,-59.36 43.87,-56.17 44.03,-52.55"/>
    </edge>
    <edge id=":1_8" function="internal">
        <lane id=":1_8_0" index="0" disallow="pedestrian tram rail_urban rail rail_electric rail_fast ship" speed="9.81" length="22.02" width="3.50" shape="40.53,-52.59 40.40,-55.47 39.93,-58.01 39.12,-60.20 37.97,-62.06 36.49,-63.59 34.66,-64.77 32.49,-65.61 29.99,-66.11 27.14,-66.28"/>
    </edge>
    <edge id=":1_9" function="internal">
        <lane id=":1_9_0" index="0" disallow="pedestrian tram rail_urban rail rail_electric rail_fast ship" speed="11.14" length="28.07" width="3.50" shape="40.53,-52.59 40.79,-56.20 41.47,-59.39 42.58,-62.15 44.10,-64.49 46.05,-66.40 48.42,-67.89 51.21,-68.96 54.42,-69.60 58.05,-69.82"/>
    </edge>
    <edge id=":1_c0" function="crossing" crossingEdges="22 45">
        <lane id=":1_c0_0" index="0" allow="pedestrian" speed="2.78" length="7.00" width="4.00" shape="45.81,-54.52 38.81,-54.62" outlineShape="45.78,-52.52 38.78,-52.62 38.68,-52.62 38.78,-52.62 36.22,-54.17 36.01,-55.55 35.68,-56.66 48.98,-56.48 48.64,-55.45 48.38,-54.04 45.78,-52.52"/>
    </edge>
    <edge id=":1_w0" function="walkingarea">
        <lane id=":1_w0_0" index="0" allow="pedestrian" speed="2.78" length="9.30" width="6.00" shape="45.78,-52.52 48.91,-52.48 54.91,-52.40 58.07,-55.44 58.06,-61.44 56.38,-61.36 54.86,-61.14 53.50,-60.77 52.29,-60.25 51.25,-59.58 50.36,-58.77 49.63,-57.81 49.05,-56.70 48.64,-55.45 48.38,-54.04"/>
    </edge>
    <edge id=":1_w1" function="walkingarea">
        <lane id=":1_w1_0" index="0" allow="pedestrian" speed="2.78" length="30.91" width="6.00" shape="58.04,-74.70 58.03,-80.70 27.12,-80.66 27.13,-74.66"/>
    </edge>
    <edge id=":1_w2" function="walkingarea">
        <lane id=":1_w2_0" index="0" allow="pedestrian" speed="2.78" length="8.87" width="6.00" shape="27.15,-61.40 27.16,-55.40 29.65,-52.74 35.65,-52.66 38.78,-52.62 36.22,-54.17 36.01,-55.55 35.65,-56.78 35.13,-57.86 34.45,-58.80 33.62,-59.60 32.64,-60.25 31.50,-60.75 30.20,-61.11 28.75,-61.33"/>
    </edge>
    <edge id=":10_0" function="internal">
        <lane id=":10_0_0" index="0" disallow="all" speed="1.39" length="46.63" width="2.00" shape="96.65,4.51 96.33,-42.12"/>
    </edge>
    <edge id=":10_1" function="internal">
        <lane id=":10_1_0" index="0" disallow="pedestrian tram rail_urban rail rail_electric rail_fast ship" speed="11.03" length="7.15" width="3.50" shape="99.40,4.49 99.18,0.73 98.56,-2.60"/>
    </edge>
    <edge id=":10_2" function="internal">
        <lane id=":10_2_0" index="0" disallow="pedestrian tram rail_urban rail rail_electric rail_fast ship" speed="13.89" length="46.64" width="3.50" shape="99.40,4.49 99.08,-42.14">
            <param key="signalID" value="957"/>
        </lane>
        <lane id=":10_2_1" index="1" disallow="pedestrian tram rail_urban rail rail_electric rail_fast ship" speed="13.89" length="46.64" width="3.50" shape="102.90,4.47 102.58,-42.17">
            <param key="signalID" value="957"/>
        </lane>
    </edge>
    <edge id=":10_15" function="internal">
        <lane id=":10_15_0" index="0" disallow="pedestrian tram rail_urban rail rail_electric rail_fast ship" speed="11.03" length="20.58" width="3.50" shape="98.56,-2.60 97.54,-5.47 96.12,-7.91 94.31,-9.90 92.10,-11.44 89.49,-12.54 86.48,-13.20 83.08,-13.41"/>
    </edge>
    <edge id=":10_4" function="internal">
        <lane id=":10_4_0" index="0" allow="pedestrian" speed="2.78" length="46.65" width="6.00" shape="116.96,-42.27 117.28,4.38">
            <param key="signalID" value="959 958"/>
        </lane>
        <lane id=":10_4_1" index="1" disallow="all" speed="1.39" length="46.65" width="0.63" shape="113.64,-42.25 113.96,4.40">
            <param key="signalID" value="959 958"/>
        </lane>
        <lane id=":10_4_2" index="2" disallow="all" speed="1.39" length="46.65" width="2.00" shape="112.33,-42.24 112.65,4.41">
            <param key="signalID" value="959 958"/>
        </lane>
        <lane id=":10_4_3" index="3" disallow="pedestrian tram rail_urban rail rail_electric rail_fast ship" speed="13.89" length="46.65" width="3.50" shape="109.58,-42.22 109.90,4.43">
            <param key="signalID" value="959 958 958"/>
        </lane>
        <lane id=":10_4_4" index="4" disallow="pedestrian tram rail_urban rail rail_electric rail_fast ship" speed="13.89" length="46.65" width="3.50" shape="106.08,-42.19 106.40,4.45">
            <param key="signalID" value="959 958 958"/>
        </lane>
    </edge>
    <edge id=":10_9" function="internal">
        <lane id=":10_9_0" index="0" disallow="pedestrian tram rail_urban rail rail_electric rail_fast ship" speed="13.46" length="9.55" width="3.50" shape="106.08,-42.19 105.84,-36.16 105.30,-32.68">
            <param key="signalID" value="958 957 958"/>
        </lane>
        <lane id=":10_9_1" index="1" disallow="pedestrian tram rail_urban rail rail_electric rail_fast ship" speed="13.00" length="8.40" width="3.50" shape="106.08,-42.19 105.83,-36.90 105.29,-33.85">
            <param key="signalID" value="958 957 958"/>
        </lane>
    </edge>
    <edge id=":10_16" function="internal">
        <lane id=":10_16_0" index="0" disallow="pedestrian tram rail_urban rail rail_electric rail_fast ship" speed="13.46" length="32.58" width="3.50" shape="105.30,-32.68 105.02,-30.84 103.62,-26.23 101.64,-22.32 99.08,-19.13 95.95,-16.64 92.24,-14.85 87.95,-13.78 83.08,-13.41">
            <param key="signalID" value="958 957 958"/>
        </lane>
    </edge>
    <edge id=":10_17" function="internal">
        <lane id=":10_17_0" index="0" disallow="pedestrian tram rail_urban rail rail_electric rail_fast ship" speed="13.00" length="30.81" width="3.50" shape="105.29,-33.85 105.01,-32.23 103.60,-28.17 101.62,-24.74 99.07,-21.94 95.93,-19.75 92.22,-18.18 87.93,-17.23 83.07,-16.91">
            <param key="signalID" value="958 957 958"/>
        </lane>
    </edge>
    <edge id=":10_11" function="internal">
        <lane id=":10_11_0" index="0" disallow="pedestrian tram rail_urban rail rail_electric rail_fast ship" speed="10.30" length="20.15" width="3.50" shape="83.04,-28.41 86.42,-28.59 89.41,-29.10 91.99,-29.96 94.18,-31.14 95.96,-32.67 97.34,-34.53 98.32,-36.73 98.64,-38.14"/>
        <lane id=":10_11_1" index="1" disallow="pedestrian tram rail_urban rail rail_electric rail_fast ship" speed="10.89" length="23.11" width="3.50" shape="83.04,-28.41 87.16,-28.59 90.79,-29.11 93.94,-29.96 96.60,-31.15 98.77,-32.68 100.45,-34.55 101.65,-36.75 102.04,-38.16"/>
    </edge>
    <edge id=":10_13" function="internal">
        <lane id=":10_13_0" index="0" disallow="pedestrian tram rail_urban rail rail_electric rail_fast ship" speed="13.89" length="41.52" width="3.50" shape="83.05,-24.91 88.65,-24.56 93.59,-23.49 97.88,-21.68 101.52,-19.15 104.51,-15.89 106.84,-11.90 108.51,-7.19 109.53,-1.74 109.66,0.43">
            <param key="signalID" value="959 959"/>
        </lane>
        <lane id=":10_13_1" index="1" disallow="pedestrian tram rail_urban rail rail_electric rail_fast ship" speed="13.60" length="38.79" width="3.50" shape="83.05,-24.91 87.91,-24.56 92.21,-23.48 95.94,-21.68 99.10,-19.14 101.70,-15.88 103.73,-11.89 105.18,-7.17 106.08,-1.73 106.19,0.45">
            <param key="signalID" value="959 959"/>
        </lane>
    </edge>
    <edge id=":10_18" function="internal">
        <lane id=":10_18_0" index="0" disallow="pedestrian tram rail_urban rail rail_electric rail_fast ship" speed="10.30" length="4.04" width="3.50" shape="98.64,-38.14 98.90,-39.27 99.08,-42.14"/>
    </edge>
    <edge id=":10_19" function="internal">
        <lane id=":10_19_0" index="0" disallow="pedestrian tram rail_urban rail rail_electric rail_fast ship" speed="10.89" length="4.06" width="3.50" shape="102.04,-38.16 102.36,-39.29 102.58,-42.17"/>
    </edge>
    <edge id=":10_20" function="internal">
        <lane id=":10_20_0" index="0" disallow="pedestrian tram rail_urban rail rail_electric rail_fast ship" speed="13.89" length="4.01" width="3.50" shape="109.66,0.43 109.90,4.43">
            <param key="signalID" value="959 959"/>
        </lane>
    </edge>
    <edge id=":10_21" function="internal">
        <lane id=":10_21_0" index="0" disallow="pedestrian tram rail_urban rail rail_electric rail_fast ship" speed="13.60" length="4.00" width="3.50" shape="106.19,0.45 106.40,4.45">
            <param key="signalID" value="959 959"/>
        </lane>
    </edge>
    <edge id=":10_c0" function="crossing" crossingEdges="16 39">
        <lane id=":10_c0_0" index="0" allow="pedestrian" speed="2.78" length="14.00" width="4.00" shape="111.64,2.42 97.64,2.50" outlineShape="111.65,4.42 97.65,4.50 95.53,2.14 95.29,0.52 111.63,0.42 111.65,4.42 114.28,4.40 120.28,4.36 119.96,-42.29 113.96,-42.25 111.33,-42.23 111.36,-38.23 111.63,0.42"/>
    </edge>
    <edge id=":10_c1" function="crossing" crossingEdges="35 12">
        <lane id=":10_c1_0" index="0" allow="pedestrian" speed="2.78" length="14.00" width="4.00" shape="97.34,-40.13 111.34,-40.23" outlineShape="97.33,-42.13 111.33,-42.23 111.36,-38.23 94.61,-38.11 94.94,-39.00 95.24,-40.48 97.33,-42.13"/>
    </edge>
    <edge id=":10_c2" function="crossing" crossingEdges="37 14">
        <lane id=":10_c2_0" index="0" allow="pedestrian" speed="2.78" length="18.50" width="4.00" shape="85.08,-11.67 85.03,-30.17" outlineShape="83.08,-11.66 83.03,-30.16 85.17,-32.74 87.02,-32.97 87.09,-8.74 85.25,-9.05 83.08,-11.66"/>
    </edge>
    <edge id=":10_w0" function="walkingarea">
        <lane id=":10_w0_0" index="0" allow="pedestrian" speed="2.78" length="13.17" width="6.00" shape="83.08,-11.66 83.09,-8.53 83.11,-2.53 89.02,4.56 95.02,4.52 97.65,4.50 95.53,2.14 95.21,-0.02 94.68,-1.94 93.95,-3.64 93.01,-5.11 91.87,-6.35 90.52,-7.37 88.97,-8.16 87.22,-8.72 85.25,-9.05"/>
    </edge>
    <edge id=":10_w1" function="walkingarea">
        <lane id=":10_w1_0" index="0" allow="pedestrian" speed="2.78" length="31.88" width="6.00" shape="111.63,0.42 111.65,4.42 114.28,4.40 120.28,4.36 119.96,-42.29 113.96,-42.25 111.33,-42.23 111.36,-38.23"/>
    </edge>
    <edge id=":10_w2" function="walkingarea">
        <lane id=":10_w2_0" index="0" allow="pedestrian" speed="2.78" length="11.20" width="6.00" shape="97.33,-42.13 94.70,-42.11 88.70,-42.07 83.01,-39.29 83.02,-33.29 83.03,-30.16 85.17,-32.74 87.11,-32.98 88.85,-33.38 90.38,-33.93 91.70,-34.63 92.82,-35.49 93.73,-36.50 94.44,-37.67 94.94,-39.00 95.24,-40.48"/>
    </edge>
    <edge id=":11_0" function="internal">
        <lane id=":11_0_0" index="0" disallow="all" speed="1.39" length="29.68" width="2.00" shape="96.25,-53.20 96.05,-82.89"/>
    </edge>
    <edge id=":11_1" function="internal">
        <lane id=":11_1_0" index="0" disallow="pedestrian tram rail_urban rail rail_electric rail_fast ship" speed="9.70" length="5.74" width="3.50" shape="99.00,-53.22 98.82,-55.98 98.32,-58.42 98.15,-58.87"/>
    </edge>
    <edge id=":11_2" function="internal">
        <lane id=":11_2_0" index="0" disallow="pedestrian tram rail_urban rail rail_electric rail_fast ship" speed="13.89" length="29.68" width="3.50" shape="99.00,-53.22 98.80,-82.90"/>
        <lane id=":11_2_1" index="1" disallow="pedestrian tram rail_urban rail rail_electric rail_fast ship" speed="13.89" length="29.68" width="3.50" shape="102.50,-53.25 102.30,-82.92"/>
    </edge>
    <edge id=":11_10" function="internal">
        <lane id=":11_10_0" index="0" disallow="pedestrian tram rail_urban rail rail_electric rail_fast ship" speed="9.70" length="15.44" width="3.50" shape="98.15,-58.87 97.51,-60.53 96.38,-62.31 94.94,-63.77 93.17,-64.91 91.09,-65.72 88.70,-66.20 85.98,-66.36"/>
    </edge>
    <edge id=":11_4" function="internal">
        <lane id=":11_4_0" index="0" allow="pedestrian" speed="2.78" length="29.66" width="6.00" shape="116.68,-83.00 116.88,-53.35"/>
        <lane id=":11_4_1" index="1" disallow="all" speed="1.39" length="29.66" width="0.63" shape="113.36,-82.98 113.56,-53.33"/>
        <lane id=":11_4_2" index="2" disallow="all" speed="1.39" length="29.66" width="2.00" shape="112.05,-82.97 112.25,-53.32"/>
        <lane id=":11_4_3" index="3" disallow="pedestrian tram rail_urban rail rail_electric rail_fast ship" speed="13.89" length="29.66" width="3.50" shape="109.30,-82.96 109.50,-53.30"/>
        <lane id=":11_4_4" index="4" disallow="pedestrian tram rail_urban rail rail_electric rail_fast ship" speed="13.89" length="29.66" width="3.50" shape="105.80,-82.94 106.00,-53.27"/>
    </edge>
    <edge id=":11_9" function="internal">
        <lane id=":11_9_0" index="0" disallow="pedestrian tram rail_urban rail rail_electric rail_fast ship" speed="9.63" length="20.98" width="3.50" shape="85.98,-69.86 88.68,-70.02 91.07,-70.51 93.13,-71.32 94.88,-72.45 96.30,-73.89 97.41,-75.66 98.19,-77.76 98.66,-80.17 98.80,-82.90"/>
    </edge>
    <edge id=":11_c0" function="crossing" crossingEdges="3 26">
        <lane id=":11_c0_0" index="0" allow="pedestrian" speed="2.78" length="7.00" width="4.00" shape="87.99,-64.61 87.97,-71.61" outlineShape="85.99,-64.61 85.97,-71.61 85.97,-71.71 85.97,-71.61 87.45,-74.18 88.78,-74.40 89.97,-74.77 89.99,-61.46 88.82,-61.82 87.48,-62.04 85.99,-64.61"/>
    </edge>
    <edge id=":11_w0" function="walkingarea">
        <lane id=":11_w0_0" index="0" allow="pedestrian" speed="2.78" length="8.73" width="6.00" shape="85.99,-64.61 85.99,-61.48 86.00,-55.48 88.62,-53.15 94.62,-53.19 94.54,-54.74 94.32,-56.14 93.95,-57.40 93.45,-58.50 92.80,-59.46 92.02,-60.27 91.09,-60.94 90.03,-61.45 88.82,-61.82 87.48,-62.04"/>
    </edge>
    <edge id=":11_w1" function="walkingarea">
        <lane id=":11_w1_0" index="0" allow="pedestrian" speed="2.78" length="29.65" width="6.00" shape="113.88,-53.33 119.88,-53.37 119.68,-83.01 113.68,-82.98"/>
    </edge>
    <edge id=":11_w2" function="walkingarea">
        <lane id=":11_w2_0" index="0" allow="pedestrian" speed="2.78" length="8.56" width="6.00" shape="94.42,-82.88 88.42,-82.85 85.96,-80.74 85.97,-74.74 85.97,-71.61 87.45,-74.18 88.78,-74.40 89.97,-74.77 91.02,-75.27 91.93,-75.93 92.70,-76.72 93.32,-77.67 93.81,-78.75 94.16,-79.98 94.36,-81.36"/>
    </edge>
    <edge id=":12_0" function="internal">
        <lane id=":12_0_0" index="0" allow="pedestrian" speed="2.78" length="0.29" width="6.00" shape="-5.05,75.43 -5.34,75.43"/>
        <lane id=":12_0_1" index="1" disallow="all" speed="1.39" length="0.29" width="0.63" shape="-5.08,72.11 -5.37,72.12"/>
        <lane id=":12_0_2" index="2" disallow="all" speed="1.39" length="0.29" width="2.00" shape="-5.09,70.80 -5.39,70.80"/>
        <lane id=":12_0_3" index="3" disallow="pedestrian tram rail_urban rail rail_electric rail_fast ship" speed="13.89" length="0.29" width="3.50" shape="-5.12,68.05 -5.42,68.05"/>
        <lane id=":12_0_4" index="4" disallow="pedestrian tram rail_urban rail rail_electric rail_fast ship" speed="13.89" length="0.29" width="3.50" shape="-5.15,64.55 -5.45,64.55"/>
    </edge>
    <edge id=":12_5" function="internal">
        <lane id=":12_5_0" index="0" allow="pedestrian" speed="2.78" length="0.31" width="6.00" shape="-5.60,50.17 -5.29,50.17"/>
        <lane id=":12_5_1" index="1" disallow="all" speed="1.39" length="0.31" width="0.63" shape="-5.57,53.49 -5.26,53.48"/>
        <lane id=":12_5_2" index="2" disallow="all" speed="1.39" length="0.31" width="2.00" shape="-5.55,54.80 -5.25,54.80"/>
        <lane id=":12_5_3" index="3" disallow="pedestrian tram rail_urban rail rail_electric rail_fast ship" speed="13.89" length="0.31" width="3.50" shape="-5.52,57.55 -5.22,57.55"/>
        <lane id=":12_5_4" index="4" disallow="pedestrian tram rail_urban rail rail_electric rail_fast ship" speed="13.89" length="0.31" width="3.50" shape="-5.49,61.05 -5.19,61.05"/>
    </edge>
    <edge id=":12_w0" function="walkingarea">
        <lane id=":12_w0_0" index="0" allow="pedestrian" speed="2.78" length="0.29" width="6.00" shape="-5.37,72.43 -5.31,78.43 -5.02,78.43 -5.08,72.43"/>
    </edge>
    <edge id=":12_w1" function="walkingarea">
        <lane id=":12_w1_0" index="0" allow="pedestrian" speed="2.78" length="0.31" width="6.00" shape="-5.26,53.17 -5.32,47.17 -5.63,47.17 -5.57,53.17"/>
    </edge>
    <edge id=":13_0" function="internal">
        <lane id=":13_0_0" index="0" allow="pedestrian" speed="2.78" length="46.15" width="6.00" shape="-121.10,2.46 -121.61,-43.69"/>
        <lane id=":13_0_1" index="1" disallow="all" speed="1.39" length="46.15" width="0.63" shape="-117.78,2.41 -118.29,-43.74"/>
        <lane id=":13_0_2" index="2" disallow="all" speed="1.39" length="46.15" width="2.00" shape="-116.47,2.39 -116.98,-43.76"/>
        <lane id=":13_0_3" index="3" disallow="pedestrian tram rail_urban rail rail_electric rail_fast ship" speed="13.89" length="46.15" width="3.50" shape="-113.72,2.35 -114.23,-43.80">
            <param key="signalID" value="962"/>
        </lane>
        <lane id=":13_0_4" index="4" disallow="pedestrian tram rail_urban rail rail_electric rail_fast ship" speed="13.89" length="46.15" width="3.50" shape="-110.22,2.30 -110.73,-43.85">
            <param key="signalID" value="962"/>
        </lane>
    </edge>
    <edge id=":13_5" function="internal">
        <lane id=":13_5_0" index="0" disallow="pedestrian tram rail_urban rail rail_electric rail_fast ship" speed="13.46" length="10.62" width="3.50" shape="-110.22,2.30 -110.04,-4.04 -109.49,-8.28">
            <param key="signalID" value="960 960"/>
        </lane>
        <lane id=":13_5_1" index="1" disallow="pedestrian tram rail_urban rail rail_electric rail_fast ship" speed="12.99" length="9.37" width="3.50" shape="-110.22,2.30 -110.03,-3.30 -109.48,-7.03">
            <param key="signalID" value="960 960"/>
        </lane>
    </edge>
    <edge id=":13_15" function="internal">
        <lane id=":13_15_0" index="0" disallow="pedestrian tram rail_urban rail rail_electric rail_fast ship" speed="13.46" length="31.74" width="3.50" shape="-109.49,-8.28 -109.32,-9.63 -108.03,-14.47 -106.19,-18.58 -103.80,-21.94 -100.85,-24.55 -97.35,-26.43 -93.30,-27.55 -88.68,-27.94">
            <param key="signalID" value="960 960"/>
        </lane>
    </edge>
    <edge id=":13_16" function="internal">
        <lane id=":13_16_0" index="0" disallow="pedestrian tram rail_urban rail rail_electric rail_fast ship" speed="12.99" length="29.99" width="3.50" shape="-109.48,-7.03 -109.30,-8.24 -108.01,-12.53 -106.16,-16.16 -103.77,-19.13 -100.82,-21.44 -97.33,-23.10 -93.28,-24.10 -88.67,-24.44">
            <param key="signalID" value="960 960"/>
        </lane>
    </edge>
    <edge id=":13_7" function="internal">
        <lane id=":13_7_0" index="0" disallow="pedestrian tram rail_urban rail rail_electric rail_fast ship" speed="10.26" length="20.13" width="3.50" shape="-88.64,-12.94 -91.75,-12.74 -94.48,-12.18 -96.84,-11.24 -98.83,-9.93 -100.45,-8.25 -101.70,-6.20 -102.58,-3.77 -102.93,-1.82"/>
        <lane id=":13_7_1" index="1" disallow="pedestrian tram rail_urban rail rail_electric rail_fast ship" speed="10.84" length="23.03" width="3.50" shape="-88.64,-12.94 -92.48,-12.74 -95.86,-12.17 -98.79,-11.23 -101.25,-9.92 -103.26,-8.23 -104.81,-6.17 -105.91,-3.74 -106.35,-1.76"/>
    </edge>
    <edge id=":13_9" function="internal">
        <lane id=":13_9_0" index="0" disallow="pedestrian tram rail_urban rail rail_electric rail_fast ship" speed="13.65" length="38.79" width="3.50" shape="-88.65,-16.44 -93.94,-16.76 -98.61,-17.77 -102.68,-19.45 -106.13,-21.81 -108.97,-24.85 -111.20,-28.57 -112.82,-32.97 -113.83,-38.04 -113.95,-39.80"/>
        <lane id=":13_9_1" index="1" disallow="pedestrian tram rail_urban rail rail_electric rail_fast ship" speed="13.22" length="36.07" width="3.50" shape="-88.65,-16.44 -93.20,-16.77 -97.23,-17.77 -100.73,-19.46 -103.71,-21.82 -106.16,-24.87 -108.09,-28.60 -109.50,-33.00 -110.38,-38.09 -110.48,-39.86"/>
    </edge>
    <edge id=":13_17" function="internal">
        <lane id=":13_17_0" index="0" disallow="pedestrian tram rail_urban rail rail_electric rail_fast ship" speed="10.26" length="4.02" width="3.50" shape="-102.93,-1.82 -103.09,-0.98 -103.22,2.19"/>
    </edge>
    <edge id=":13_18" function="internal">
        <lane id=":13_18_0" index="0" disallow="pedestrian tram rail_urban rail rail_electric rail_fast ship" speed="10.84" length="4.03" width="3.50" shape="-106.35,-1.76 -106.54,-0.93 -106.72,2.24"/>
    </edge>
    <edge id=":13_19" function="internal">
        <lane id=":13_19_0" index="0" disallow="pedestrian tram rail_urban rail rail_electric rail_fast ship" speed="13.65" length="4.01" width="3.50" shape="-113.95,-39.80 -114.23,-43.80"/>
    </edge>
    <edge id=":13_20" function="internal">
        <lane id=":13_20_0" index="0" disallow="pedestrian tram rail_urban rail rail_electric rail_fast ship" speed="13.22" length="4.00" width="3.50" shape="-110.48,-39.86 -110.73,-43.85"/>
    </edge>
    <edge id=":13_11" function="internal">
        <lane id=":13_11_0" index="0" disallow="all" speed="1.39" length="46.15" width="2.00" shape="-100.98,-44.00 -100.47,2.15">
            <param key="signalID" value="962 960"/>
        </lane>
    </edge>
    <edge id=":13_12" function="internal">
        <lane id=":13_12_0" index="0" disallow="pedestrian tram rail_urban rail rail_electric rail_fast ship" speed="10.55" length="6.59" width="3.50" shape="-103.73,-43.96 -103.50,-40.59 -102.90,-37.62 -102.84,-37.45">
            <param key="signalID" value="961"/>
        </lane>
        <lane id=":13_12_1" index="1" disallow="pedestrian tram rail_urban rail rail_electric rail_fast ship" speed="11.63" length="14.98" width="3.50" shape="-107.23,-43.91 -106.94,-39.81 -106.21,-36.20 -105.04,-33.07 -103.42,-30.42 -102.91,-29.89">
            <param key="signalID" value="961 961 961"/>
        </lane>
    </edge>
    <edge id=":13_14" function="internal">
        <lane id=":13_14_0" index="0" disallow="pedestrian tram rail_urban rail rail_electric rail_fast ship" speed="13.89" length="46.15" width="3.50" shape="-107.23,-43.91 -106.72,2.24">
            <param key="signalID" value="962 960 961"/>
        </lane>
    </edge>
    <edge id=":13_21" function="internal">
        <lane id=":13_21_0" index="0" disallow="pedestrian tram rail_urban rail rail_electric rail_fast ship" speed="10.55" length="18.52" width="3.50" shape="-102.84,-37.45 -101.95,-35.04 -100.64,-32.86 -98.97,-31.08 -96.94,-29.70 -94.55,-28.72 -91.79,-28.13 -88.68,-27.94">
            <param key="signalID" value="961"/>
        </lane>
    </edge>
    <edge id=":13_22" function="internal">
        <lane id=":13_22_0" index="0" disallow="pedestrian tram rail_urban rail rail_electric rail_fast ship" speed="11.63" length="15.76" width="3.50" shape="-102.91,-29.89 -101.36,-28.26 -98.85,-26.58 -95.90,-25.38 -92.51,-24.67 -88.67,-24.44">
            <param key="signalID" value="961 961 961"/>
        </lane>
    </edge>
    <edge id=":13_c0" function="crossing" crossingEdges="19 42">
        <lane id=":13_c0_0" index="0" allow="pedestrian" speed="2.78" length="14.00" width="4.00" shape="-101.50,0.16 -115.50,0.38" outlineShape="-101.47,2.16 -115.47,2.38 -115.53,-1.62 -99.04,-1.87 -99.16,-1.44 -99.41,0.26 -101.47,2.16"/>
    </edge>
    <edge id=":13_c1" function="crossing" crossingEdges="10 33">
        <lane id=":13_c1_0" index="0" allow="pedestrian" speed="2.78" length="18.50" width="4.00" shape="-90.69,-29.68 -90.64,-11.18" outlineShape="-88.69,-29.69 -88.64,-11.19 -90.54,-8.60 -92.26,-8.32 -92.63,-8.22 -92.70,-32.67 -92.37,-32.57 -90.63,-32.28 -88.69,-29.69"/>
    </edge>
    <edge id=":13_c2" function="crossing" crossingEdges="41 18">
        <lane id=":13_c2_0" index="0" allow="pedestrian" speed="2.78" length="14.00" width="4.00" shape="-115.95,-41.77 -101.95,-41.99" outlineShape="-115.98,-43.77 -101.98,-43.98 -99.86,-41.96 -99.55,-40.10 -115.92,-39.77 -115.98,-43.77 -118.61,-43.73 -124.61,-43.64 -124.10,2.51 -118.10,2.42 -115.47,2.38 -115.53,-1.62 -115.92,-39.77"/>
    </edge>
    <edge id=":13_w0" function="walkingarea">