<?xml version="1.0" encoding="UTF-8"?>

<!-- generated on 2025-04-15 11:37:33 by Eclipse SUMO netedit Version 1.19.0
<configuration xmlns:xsi="http://www.w3.org/2001/XMLSchema-instance" xsi:noNamespaceSchemaLocation="http://sumo.dlr.de/xsd/neteditConfiguration.xsd">

    <input>
        <additional-files value="/home/mtl/Haojie/business/Mcity_safetest_carla/mcity.add.xml"/>
        <sumo-net-file value="/home/mtl/Haojie/business/Mcity_safetest_carla/tmp_netedit.net.xml"/>
    </input>

    <output>
        <output-file value="/home/mtl/Haojie/business/Mcity_safetest_carla/tmp_netedit.net.xml"/>
    </output>

    <processing>
        <geometry.min-radius.fix.railways value="false"/>
        <geometry.max-grade.fix value="false"/>
        <offset.disable-normalization value="true"/>
        <lefthand value="0"/>
    </processing>

    <junctions>
        <no-internal-links value="false"/>
        <no-turnarounds value="true"/>
        <junctions.corner-detail value="0"/>
        <junctions.limit-turn-speed value="-1.00"/>
        <rectangular-lane-cut value="0"/>
    </junctions>

    <pedestrian>
        <walkingareas value="0"/>
    </pedestrian>

</configuration>
-->

<net version="1.16" xmlns:xsi="http://www.w3.org/2001/XMLSchema-instance" xsi:noNamespaceSchemaLocation="http://sumo.dlr.de/xsd/net_file.xsd">

    <location netOffset="0.00,0.00" convBoundary="2.08,-160.48,210.60,231.54" origBoundary="0.000000,0.000000,0.000000,0.000000" projParameter="+proj=tmerc +lat_0=42.3005934157 +lon_0=-83.699283188811 +ellps=WGS84 +datum=WGS84 +units=m +no_defs"/>

    <edge id=":J0_w0" function="walkingarea">
        <lane id=":J0_w0_0" index="0" allow="pedestrian" speed="2.78" length="3.36" width="1.50" shape="55.58,-63.86,270.45 55.87,-65.33,270.45 52.10,-64.85,270.45 52.75,-63.50,270.45"/>
    </edge>
    <edge id=":J3_0" function="internal">
        <lane id=":J3_0_0" index="0" disallow="pedestrian tram rail_urban rail rail_electric rail_fast ship" speed="6.00" length="8.02" width="3.86" shape="56.78,0.80,271.84 56.78,8.20,271.84"/>
        <lane id=":J3_0_1" index="1" disallow="pedestrian tram rail_urban rail rail_electric rail_fast ship" speed="6.00" length="8.02" width="3.86" shape="56.78,0.80,271.84 56.18,3.13,271.84 54.85,4.50,271.84 53.52,5.87,271.84 52.92,8.20,271.84"/>
    </edge>
    <edge id=":J3_w0" function="walkingarea">
        <lane id=":J3_w0_0" index="0" allow="pedestrian" speed="2.78" length="7.40" width="4.43" shape="58.70,8.20,271.84 63.13,8.20,271.84 63.14,0.80,271.84 58.71,0.80,271.84"/>
    </edge>
    <edge id=":J4_0" function="internal">
        <lane id=":J4_0_0" index="0" allow="pedestrian" speed="3.00" length="7.70" width="4.70" shape="43.71,8.20,271.84 43.69,0.80,271.84"/>
        <lane id=":J4_0_1" index="1" allow="bicycle" speed="6.00" length="7.70" width="1.00" shape="46.56,8.20,271.84 46.54,0.80,271.84"/>
        <lane id=":J4_0_2" index="2" disallow="pedestrian" speed="6.00" length="7.70" width="3.86" shape="48.99,8.20,271.84 48.97,0.80,271.84"/>
        <lane id=":J4_0_3" index="3" disallow="pedestrian" speed="6.00" length="7.70" width="3.86" shape="48.99,8.20,271.84 49.59,5.87,271.84 50.91,4.50,271.84 52.23,3.13,271.84 52.83,0.80,271.84"/>
    </edge>
    <edge id=":J4_w0" function="walkingarea">
        <lane id=":J4_w0_0" index="0" allow="pedestrian" speed="2.78" length="7.40" width="4.70" shape="46.04,0.80,271.84 41.34,0.80,271.84 41.36,8.20,271.84 46.06,8.20,271.84"/>
    </edge>
    <edge id=":J5_0" function="internal">
        <lane id=":J5_0_0" index="0" disallow="pedestrian tram rail_urban rail rail_electric rail_fast ship" speed="6.00" length="4.51" width="3.46" shape="102.60,-63.03,271.03 101.94,-64.18,271.01 101.37,-64.90,271.00 100.73,-65.57,270.98 99.84,-66.58,270.96"/>
    </edge>
    <edge id=":J5_c0" function="crossing" crossingEdges="EG_9_1_1">
        <lane id=":J5_c0_0" index="0" allow="pedestrian" speed="2.78" length="3.42" width="1.00" customShape="1" shape="102.71,-66.13,271.00 100.00,-64.04,270.99"/>
    </edge>
    <edge id=":J5_w0" function="walkingarea">
        <lane id=":J5_w0_0" index="0" allow="pedestrian" speed="2.78" length="0.34" width="1.50" shape="102.40,-66.53,271.00 103.02,-65.73,271.00 102.89,-65.35,271.01 101.97,-66.53,271.01"/>
    </edge>
    <edge id=":J5_w1" function="walkingarea">
        <lane id=":J5_w1_0" index="0" allow="pedestrian" speed="2.78" length="0.43" width="1.50" shape="99.51,-64.52,271.02 100.39,-63.30,271.02 100.31,-63.64,270.99 99.69,-64.44,270.99"/>
    </edge>
    <edge id=":NODE_1_0" function="internal">
        <lane id=":NODE_1_0_0" index="0" disallow="pedestrian tram rail_urban rail rail_electric rail_fast ship" speed="7.00" length="36.75" width="5.00" shape="141.42,-84.79,270.45 139.44,-87.99,270.35 136.87,-90.95,270.21 132.98,-94.90,270.07 125.72,-100.91,269.89 115.12,-110.19,269.50"/>
        <lane id=":NODE_1_0_1" index="1" disallow="pedestrian tram rail_urban rail rail_electric rail_fast ship" speed="8.00" length="42.13" width="5.00" shape="145.22,-84.83,270.45 145.27,-87.25,270.39 144.67,-89.64,270.33 143.42,-92.43,270.26 141.68,-95.36,270.19 137.41,-99.55,270.00 130.36,-103.84,269.83 122.26,-107.73,269.65 115.12,-110.19,269.50"/>
    </edge>
    <edge id=":NODE_1_2" function="internal">
        <lane id=":NODE_1_2_0" index="0" disallow="pedestrian tram rail_urban rail rail_electric rail_fast ship" speed="6.00" length="24.61" width="5.00" shape="137.98,-111.22,269.69 132.61,-107.69,269.71 127.60,-106.58,269.75 121.29,-107.75,269.64 115.12,-110.19,269.50"/>
    </edge>
    <edge id=":NODE_10_0" function="internal">
        <lane id=":NODE_10_0_0" index="0" disallow="pedestrian tram rail_urban rail rail_electric rail_fast ship" speed="6.00" length="27.27" width="4.38" shape="110.27,107.59,274.34 109.21,101.47,274.24 106.16,96.09,274.15 101.12,91.47,274.04 94.09,87.59,273.92"/>
    </edge>
    <edge id=":NODE_10_1" function="internal">
        <lane id=":NODE_10_1_0" index="0" disallow="pedestrian tram rail_urban rail rail_electric rail_fast ship" speed="7.00" length="31.87" width="3.65" shape="110.27,107.59,274.34 107.64,75.84,273.79"/>
    </edge>
    <edge id=":NODE_10_2" function="internal">
        <lane id=":NODE_10_2_0" index="0" disallow="pedestrian tram rail_urban rail rail_electric rail_fast ship" speed="6.00" length="19.66" width="3.27" shape="110.27,107.59,274.34 110.98,101.75,274.56 113.26,98.87,274.69 117.11,98.96,274.83 122.54,102.02,275.06"/>
    </edge>
    <edge id=":NODE_10_3" function="internal">
        <lane id=":NODE_10_3_0" index="0" disallow="pedestrian tram rail_urban rail rail_electric rail_fast ship" speed="6.00" length="9.60" width="3.46" shape="120.51,104.78,275.06 117.95,103.33,274.84 116.10,103.33,274.70 114.96,104.78,274.56 114.53,107.68,274.34"/>
    </edge>
    <edge id=":NODE_10_4" function="internal">
        <lane id=":NODE_10_4_0" index="0" disallow="pedestrian tram rail_urban rail rail_electric rail_fast ship" speed="5.00" length="31.65" width="4.38" shape="120.51,104.78,275.06 116.63,101.68,274.88 110.95,97.32,274.62 103.45,92.39,274.30 94.09,87.59,273.92"/>
    </edge>
    <edge id=":NODE_10_5" function="internal">
        <lane id=":NODE_10_5_0" index="0" disallow="pedestrian tram rail_urban rail rail_electric rail_fast ship" speed="6.00" length="32.23" width="3.65" shape="120.51,104.78,275.06 116.26,99.74,274.80 112.11,91.90,274.45 108.94,83.27,274.09 107.64,75.84,273.79"/>
    </edge>
    <edge id=":NODE_10_6" function="internal">
        <lane id=":NODE_10_6_0" index="0" disallow="pedestrian tram rail_urban rail rail_electric rail_fast ship" speed="6.00" length="28.22" width="3.27" shape="114.89,75.73,273.99 115.36,85.13,274.35 116.80,92.65,274.64 119.19,98.28,274.87 122.54,102.02,275.06"/>
    </edge>
    <edge id=":NODE_10_7" function="internal">
        <lane id=":NODE_10_7_0" index="0" disallow="pedestrian tram rail_urban rail rail_electric rail_fast ship" speed="7.00" length="31.95" width="3.46" shape="114.89,75.73,273.99 114.53,107.68,274.34"/>
    </edge>
    <edge id=":NODE_10_8" function="internal">
        <lane id=":NODE_10_8_0" index="0" disallow="pedestrian tram rail_urban rail rail_electric rail_fast ship" speed="6.00" length="26.98" width="4.38" shape="111.23,75.77,273.99 110.16,83.75,273.97 106.95,88.38,273.95 101.59,89.66,273.94 94.09,87.59,273.92"/>
    </edge>
    <edge id=":NODE_10_9" function="internal">
        <lane id=":NODE_10_9_0" index="0" disallow="pedestrian tram rail_urban rail rail_electric rail_fast ship" speed="6.00" length="18.35" width="3.65" shape="95.85,83.56,273.58 101.06,85.04,273.64 104.76,84.24,273.69 106.95,81.18,273.73 107.64,75.84,273.79"/>
    </edge>
    <edge id=":NODE_10_10" function="internal">
        <lane id=":NODE_10_10_0" index="0" disallow="pedestrian tram rail_urban rail rail_electric rail_fast ship" speed="5.00" length="32.60" width="3.27" shape="95.85,83.56,273.58 105.25,88.57,274.07 112.83,93.94,274.49 118.60,98.74,274.83 122.54,102.02,275.06"/>
    </edge>
    <edge id=":NODE_10_11" function="internal">
        <lane id=":NODE_10_11_0" index="0" disallow="pedestrian tram rail_urban rail rail_electric rail_fast ship" speed="6.00" length="31.45" width="3.46" shape="95.85,83.56,273.58 102.22,87.86,273.77 108.29,94.37,273.98 112.81,101.50,274.19 114.53,107.68,274.34"/>
    </edge>
    <edge id=":NODE_10_c0" function="crossing" crossingEdges="EG_11_1_1 EG_11_2_1">
        <lane id=":NODE_10_c0_0" index="0" allow="pedestrian" speed="2.78" length="10.57" width="1.60" customShape="1" shape="95.17,91.78,273.94 99.40,82.10,273.61"/>
    </edge>
    <edge id=":NODE_10_w1" function="walkingarea">
        <lane id=":NODE_10_w1_0" index="0" allow="pedestrian" speed="2.78" length="5.54" width="2.00" shape="103.80,75.84,273.79 102.10,75.84,273.79 98.81,76.79,273.58 98.01,78.62,273.58 99.88,79.25,273.61 98.67,81.78,273.61 100.13,82.42,273.61 100.65,79.89,273.61 103.28,79.43,273.79 104.89,80.28,273.79 105.17,78.07,273.79 103.63,78.07,273.79"/>
    </edge>
    <edge id=":NODE_10_w2" function="walkingarea">
        <lane id=":NODE_10_w2_0" index="0" allow="pedestrian" speed="2.78" length="4.00" width="2.00" shape="95.90,92.10,273.94 94.44,91.46,273.94 93.56,93.25,273.94 91.93,92.53,273.92 91.13,94.36,273.92 94.17,95.20,273.92"/>
    </edge>
    <edge id=":NODE_11_0" function="internal">
        <lane id=":NODE_11_0_0" index="0" disallow="pedestrian tram rail_urban rail rail_electric rail_fast ship" speed="6.00" length="14.78" width="5.20" shape="107.55,54.71,273.20 106.91,49.17,273.10 105.02,45.21,273.01 101.85,42.84,272.94 101.00,42.69,272.92"/>
    </edge>
    <edge id=":NODE_11_1" function="internal">
        <lane id=":NODE_11_1_0" index="0" disallow="pedestrian tram rail_urban rail rail_electric rail_fast ship" speed="6.50" length="38.28" width="3.86" shape="107.55,54.71,273.20 107.22,16.44,272.40"/>
    </edge>
    <edge id=":NODE_11_2" function="internal">
        <lane id=":NODE_11_2_0" index="0" disallow="pedestrian tram rail_urban rail rail_electric rail_fast ship" speed="5.00" length="26.83" width="3.80" shape="111.19,54.69,273.20 112.09,43.63,273.11 114.78,35.73,273.04 119.25,31.00,272.98 120.10,30.78,272.98"/>
    </edge>
    <edge id=":NODE_11_3" function="internal">
        <lane id=":NODE_11_3_0" index="0" disallow="pedestrian tram rail_urban rail rail_electric rail_fast ship" speed="5.00" length="27.52" width="3.80" shape="111.19,54.69,273.20 112.43,47.70,273.15 115.67,40.73,273.09 120.26,35.37,273.03 125.52,33.22,272.99"/>
    </edge>
    <edge id=":NODE_11_15" function="internal">
        <lane id=":NODE_11_15_0" index="0" disallow="pedestrian tram rail_urban rail rail_electric rail_fast ship" speed="6.00" length="3.63" width="5.20" shape="101.00,42.69,272.92 97.43,42.05,272.85"/>
    </edge>
    <edge id=":NODE_11_16" function="internal">
        <lane id=":NODE_11_16_0" index="0" disallow="pedestrian tram rail_urban rail rail_electric rail_fast ship" speed="5.00" length="5.59" width="3.80" shape="120.10,30.78,272.98 125.52,29.42,272.93"/>
    </edge>
    <edge id=":NODE_11_4" function="internal">
        <lane id=":NODE_11_4_0" index="0" disallow="pedestrian tram rail_urban rail rail_electric rail_fast ship" speed="5.00" length="16.76" width="3.65" shape="125.51,44.54,273.23 120.85,45.18,273.22 117.52,47.08,273.22 115.52,50.24,273.21 114.85,54.66,273.20"/>
    </edge>
    <edge id=":NODE_11_5" function="internal">
        <lane id=":NODE_11_5_0" index="0" disallow="pedestrian" speed="4.00" length="28.10" width="5.20" shape="125.51,41.15,273.19 97.43,42.05,272.85"/>
    </edge>
    <edge id=":NODE_11_6" function="internal">
        <lane id=":NODE_11_6_0" index="0" disallow="pedestrian" speed="4.50" length="13.24" width="3.86" shape="125.51,41.15,273.19 119.32,38.53,273.02 114.90,33.74,272.86"/>
    </edge>
    <edge id=":NODE_11_17" function="internal">
        <lane id=":NODE_11_17_0" index="0" disallow="pedestrian" speed="4.50" length="19.23" width="3.86" shape="114.90,33.74,272.86 113.40,32.12,272.81 108.97,24.05,272.59 107.22,16.44,272.40"/>
    </edge>
    <edge id=":NODE_11_7" function="internal">
        <lane id=":NODE_11_7_0" index="0" disallow="pedestrian tram rail_urban rail rail_electric rail_fast ship" speed="4.50" length="13.40" width="3.80" shape="114.80,16.42,272.40 115.54,22.11,272.56 117.57,26.17,272.69 120.10,28.02,272.77"/>
    </edge>
    <edge id=":NODE_11_8" function="internal">
        <lane id=":NODE_11_8_0" index="0" disallow="pedestrian tram rail_urban rail rail_electric rail_fast ship" speed="4.50" length="22.32" width="3.80" shape="114.80,16.42,272.40 115.56,23.78,272.60 117.60,29.03,272.74 120.92,32.18,272.87 125.52,33.22,272.99"/>
    </edge>
    <edge id=":NODE_11_9" function="internal">
        <lane id=":NODE_11_9_0" index="0" disallow="pedestrian tram rail_urban rail rail_electric rail_fast ship" speed="6.50" length="38.25" width="3.65" shape="114.80,16.42,272.40 114.85,54.66,273.20"/>
    </edge>
    <edge id=":NODE_11_10" function="internal">
        <lane id=":NODE_11_10_0" index="0" disallow="pedestrian tram rail_urban rail rail_electric rail_fast ship" speed="5.50" length="28.63" width="5.20" shape="111.20,16.43,272.40 110.33,27.64,272.56 107.74,35.65,272.67 103.44,40.45,272.76 101.00,41.10,272.80"/>
    </edge>
    <edge id=":NODE_11_18" function="internal">
        <lane id=":NODE_11_18_0" index="0" disallow="pedestrian tram rail_urban rail rail_electric rail_fast ship" speed="4.50" length="5.69" width="3.80" shape="120.10,28.02,272.77 120.90,28.60,272.80 125.52,29.42,272.93"/>
    </edge>
    <edge id=":NODE_11_19" function="internal">
        <lane id=":NODE_11_19_0" index="0" disallow="pedestrian tram rail_urban rail rail_electric rail_fast ship" speed="5.50" length="3.70" width="5.20" shape="101.00,41.10,272.80 97.43,42.05,272.85"/>
    </edge>
    <edge id=":NODE_11_11" function="internal">
        <lane id=":NODE_11_11_0" index="0" disallow="pedestrian tram rail_urban rail rail_electric rail_fast ship" speed="5.50" length="21.88" width="3.86" shape="97.49,33.45,272.59 101.76,32.38,272.55 104.80,29.18,272.52 106.62,23.87,272.47 107.22,16.44,272.40"/>
    </edge>
    <edge id=":NODE_11_12" function="internal">
        <lane id=":NODE_11_12_0" index="0" disallow="pedestrian tram rail_urban rail rail_electric rail_fast ship" speed="4.00" length="28.39" width="3.80" shape="97.49,33.45,272.59 106.44,32.80,272.70 113.06,31.42,272.78 118.91,30.04,272.85 125.52,29.42,272.93"/>
    </edge>
    <edge id=":NODE_11_13" function="internal">
        <lane id=":NODE_11_13_0" index="0" disallow="pedestrian tram rail_urban rail rail_electric rail_fast ship" speed="4.00" length="28.03" width="3.80" shape="97.49,33.45,272.59 125.52,33.22,272.99"/>
    </edge>
    <edge id=":NODE_11_14" function="internal">
        <lane id=":NODE_11_14_0" index="0" disallow="pedestrian tram rail_urban rail rail_electric rail_fast ship" speed="6.00" length="13.34" width="3.65" shape="97.49,33.45,272.59 105.08,34.76,272.74 109.63,38.09,272.85"/>
    </edge>
    <edge id=":NODE_11_20" function="internal">
        <lane id=":NODE_11_20_0" index="0" disallow="pedestrian tram rail_urban rail rail_electric rail_fast ship" speed="6.00" length="17.84" width="3.65" shape="109.63,38.09,272.85 110.51,38.73,272.87 113.76,45.36,273.02 114.85,54.66,273.20"/>
    </edge>
    <edge id=":NODE_11_c0" function="crossing" crossingEdges="EG_6_4_1 EG_6_2_1 EG_6_1_1">
        <lane id=":NODE_11_c0_0" index="0" allow="pedestrian" speed="2.78" length="20.06" width="4.00" customShape="1" shape="122.10,25.94,272.88 122.10,46.00,273.18"/>
    </edge>
    <edge id=":NODE_11_c1" function="crossing" crossingEdges="EG_12_1_1 EG_13_1_1">
        <lane id=":NODE_11_c1_0" index="0" allow="pedestrian" speed="2.78" length="21.90" width="2.20" customShape="1" shape="99.90,47.78,272.85 99.90,25.88,272.61"/>
    </edge>
    <edge id=":NODE_11_w0" function="walkingarea">
        <lane id=":NODE_11_w0_0" index="0" allow="pedestrian" speed="2.78" length="6.10" width="7.00" shape="101.00,47.78,272.85 98.80,47.78,272.85 97.36,47.15,272.85 97.36,54.15,272.85 102.02,54.77,273.20 103.72,54.77,273.20"/>
    </edge>
    <edge id=":NODE_11_w1" function="walkingarea">
        <lane id=":NODE_11_w1_0" index="0" allow="pedestrian" speed="2.78" length="8.34" width="4.00" shape="116.67,54.63,273.20 117.17,54.63,273.20 125.51,47.84,273.23 125.51,46.24,273.23 124.10,46.00,273.18 120.10,46.00,273.18"/>
    </edge>
    <edge id=":NODE_11_w2" function="walkingarea">
        <lane id=":NODE_11_w2_0" index="0" allow="pedestrian" speed="2.78" length="7.93" width="3.80" shape="125.51,42.85,273.19 125.52,39.45,273.19 125.52,35.12,272.99 125.51,31.32,272.99"/>
    </edge>
    <edge id=":NODE_11_w3" function="walkingarea">
        <lane id=":NODE_11_w3_0" index="0" allow="pedestrian" speed="2.78" length="3.51" width="4.00" shape="120.10,25.94,272.88 124.10,25.94,272.88 125.52,27.52,272.93 125.52,25.92,272.93"/>
    </edge>
    <edge id=":NODE_11_w4" function="walkingarea">
        <lane id=":NODE_11_w4_0" index="0" allow="pedestrian" speed="2.78" length="7.46" width="4.00" shape="103.20,16.45,272.40 101.20,16.45,272.40 97.23,23.35,272.59 97.25,27.35,272.59 98.80,25.88,272.61 101.00,25.88,272.61"/>
    </edge>
    <edge id=":NODE_12_0" function="internal">
        <lane id=":NODE_12_0_0" index="0" disallow="pedestrian tram rail_urban rail rail_electric rail_fast ship" speed="6.00" length="8.19" width="3.75" shape="107.16,-12.89,271.94 106.54,-16.90,271.84 104.67,-19.77,271.77 104.06,-20.11,271.75"/>
    </edge>
    <edge id=":NODE_12_1" function="internal">
        <lane id=":NODE_12_1_0" index="0" disallow="pedestrian tram rail_urban rail rail_electric rail_fast ship" speed="6.00" length="24.34" width="3.46" shape="107.16,-12.89,271.94 107.40,-37.22,271.56"/>
    </edge>
    <edge id=":NODE_12_6" function="internal">
        <lane id=":NODE_12_6_0" index="0" disallow="pedestrian tram rail_urban rail rail_electric rail_fast ship" speed="6.00" length="7.24" width="3.75" shape="104.06,-20.11,271.75 101.56,-21.49,271.69 97.21,-22.06,271.59"/>
    </edge>
    <edge id=":NODE_12_2" function="internal">
        <lane id=":NODE_12_2_0" index="0" disallow="pedestrian tram rail_urban rail rail_electric rail_fast ship" speed="4.50" length="21.11" width="3.65" shape="114.27,-34.11,271.62 114.41,-13.00,271.93"/>
    </edge>
    <edge id=":NODE_12_3" function="internal">
        <lane id=":NODE_12_3_0" index="0" disallow="pedestrian tram rail_urban rail rail_electric rail_fast ship" speed="5.00" length="5.65" width="3.75" shape="111.11,-34.05,271.62 110.21,-28.81,271.61 110.02,-28.54,271.61"/>
    </edge>
    <edge id=":NODE_12_7" function="internal">
        <lane id=":NODE_12_7_0" index="0" disallow="pedestrian tram rail_urban rail rail_electric rail_fast ship" speed="5.00" length="15.21" width="3.75" shape="110.02,-28.54,271.61 107.59,-25.07,271.60 103.26,-22.82,271.60 97.21,-22.06,271.59"/>
    </edge>
    <edge id=":NODE_12_4" function="internal">
        <lane id=":NODE_12_4_0" index="0" disallow="pedestrian tram rail_urban rail rail_electric rail_fast ship" speed="6.00" length="15.43" width="3.46" shape="100.02,-25.80,271.60 103.39,-26.52,271.59 105.74,-28.67,271.58 107.08,-32.23,271.57 107.40,-37.22,271.56"/>
    </edge>
    <edge id=":NODE_12_5" function="internal">
        <lane id=":NODE_12_5_0" index="0" disallow="pedestrian tram rail_urban rail rail_electric rail_fast ship" speed="5.50" length="21.89" width="3.65" shape="100.02,-25.80,271.60 106.24,-25.01,271.70 110.71,-22.62,271.77 113.43,-18.61,271.84 114.41,-13.00,271.93"/>
    </edge>
    <edge id=":NODE_12_c0" function="crossing" crossingEdges="EG_14_1_1 EG_14_2_1">
        <lane id=":NODE_12_c0_0" index="0" allow="pedestrian" speed="2.78" length="13.30" width="2.66" customShape="1" shape="102.72,-17.43,271.58 102.74,-30.73,271.60"/>
    </edge>
    <edge id=":NODE_12_w0" function="walkingarea">
        <lane id=":NODE_12_w0_0" index="0" allow="pedestrian" speed="2.78" length="5.65" width="5.20" shape="104.05,-17.43,271.58 101.39,-17.43,271.58 101.20,-16.45,271.58 97.16,-17.90,271.58 97.16,-16.18,271.58 99.48,-15.55,271.58 100.68,-14.45,271.58 101.14,-12.80,271.94 103.14,-12.81,271.94"/>
    </edge>
    <edge id=":NODE_12_w2" function="walkingarea">
        <lane id=":NODE_12_w2_0" index="0" allow="pedestrian" speed="2.78" length="6.73" width="2.66" shape="97.40,-35.82,271.61 97.40,-33.82,271.61 101.21,-33.82,271.61 101.41,-30.73,271.60 104.07,-30.73,271.60 104.07,-35.82,271.60"/>
    </edge>
    <edge id=":NODE_13_0" function="internal">
        <lane id=":NODE_13_0_0" index="0" disallow="pedestrian tram rail_urban rail rail_electric rail_fast ship" speed="5.50" length="17.87" width="7.00" shape="65.83,117.20,273.88 62.25,115.12,273.86 57.81,113.44,273.85 53.28,111.90,273.83 49.44,110.19,273.81"/>
    </edge>
    <edge id=":NODE_13_1" function="internal">
        <lane id=":NODE_13_1_0" index="0" disallow="pedestrian tram rail_urban rail rail_electric rail_fast ship" speed="5.00" length="12.02" width="3.49" shape="64.17,103.34,274.09 64.43,106.78,274.02 65.21,109.73,273.95 66.52,112.21,273.90 68.36,114.20,273.84"/>
    </edge>
    <edge id=":NODE_13_2" function="internal">
        <lane id=":NODE_13_2_0" index="0" disallow="pedestrian tram rail_urban rail rail_electric rail_fast ship" speed="5.00" length="18.39" width="7.00" shape="64.17,103.34,274.09 62.03,107.57,274.02 58.86,110.13,273.95 54.67,111.00,273.88 49.44,110.19,273.81"/>
    </edge>
    <edge id=":NODE_14_0" function="internal">
        <lane id=":NODE_14_0_0" index="0" disallow="pedestrian tram rail_urban rail rail_electric rail_fast ship" speed="5.50" length="19.33" width="3.27" shape="40.72,102.18,272.84 37.45,99.41,272.83 32.71,97.12,272.82 27.82,94.95,272.80 24.08,92.58,272.79"/>
    </edge>
    <edge id=":NODE_14_1" function="internal">
        <lane id=":NODE_14_1_0" index="0" disallow="pedestrian tram rail_urban rail rail_electric rail_fast ship" speed="5.00" length="8.73" width="7.00" shape="40.72,102.18,272.84 39.66,100.05,272.83 39.42,98.02,272.81 40.00,96.09,272.80 41.40,94.28,272.79"/>
    </edge>
    <edge id=":NODE_14_2" function="internal">
        <lane id=":NODE_14_2_0" index="0" disallow="pedestrian tram rail_urban rail rail_electric rail_fast ship" speed="5.50" length="17.10" width="7.00" shape="26.12,90.24,272.74 30.27,93.59,272.76 34.20,95.37,272.77 37.91,95.60,272.78 41.40,94.28,272.79"/>
    </edge>
    <edge id=":NODE_15_0" function="internal">
        <lane id=":NODE_15_0_0" index="0" disallow="pedestrian tram rail_urban rail rail_electric rail_fast ship" speed="5.00" length="14.80" width="5.26" shape="67.40,75.92,272.93 62.65,74.40,272.93 59.27,74.59,272.93 57.24,76.47,272.93 56.57,80.06,272.93"/>
    </edge>
    <edge id=":NODE_15_1" function="internal">
        <lane id=":NODE_15_1_0" index="0" disallow="pedestrian tram rail_urban rail rail_electric rail_fast ship" speed="5.00" length="17.78" width="4.38" shape="55.99,61.08,272.71 56.85,63.65,272.72 59.35,66.32,272.74 63.49,69.08,272.75 69.27,71.92,272.78"/>
    </edge>
    <edge id=":NODE_15_2" function="internal">
        <lane id=":NODE_15_2_0" index="0" disallow="pedestrian tram rail_urban rail rail_electric rail_fast ship" speed="5.00" length="19.00" width="5.26" shape="55.99,61.08,272.71 56.57,80.06,272.93"/>
    </edge>
    <edge id=":NODE_15_c0" function="crossing" crossingEdges="EG_11_2_1 EG_11_1_1">
        <lane id=":NODE_15_c0_0" index="0" allow="pedestrian" speed="2.78" length="8.80" width="1.60" shape="69.41,69.59,272.75 65.79,77.61,272.90"/>
    </edge>
    <edge id=":NODE_15_w0" function="walkingarea">
        <lane id=":NODE_15_w0_0" index="0" allow="pedestrian" speed="2.78" length="4.25" width="2.00" shape="64.30,82.63,272.92 65.10,80.80,272.92 66.52,77.94,272.90 65.06,77.28,272.90 63.30,81.86,272.92"/>
    </edge>
    <edge id=":NODE_15_w1" function="walkingarea">
        <lane id=":NODE_15_w1_0" index="0" allow="pedestrian" speed="2.78" length="8.94" width="7.00" shape="68.68,69.27,272.75 70.14,69.92,272.75 71.57,67.04,272.78 72.37,65.21,272.78 65.62,60.83,272.71 58.62,60.94,272.71"/>
    </edge>
    <edge id=":NODE_16_0" function="internal">
        <lane id=":NODE_16_0_0" index="0" disallow="pedestrian tram rail_urban rail rail_electric rail_fast ship" speed="5.00" length="10.73" width="7.00" shape="56.58,83.04,273.14 56.99,85.99,273.14 58.08,87.91,273.15 59.68,89.69,273.15 61.60,92.19,273.15"/>
    </edge>
    <edge id=":NODE_16_1" function="internal">
        <lane id=":NODE_16_1_0" index="0" disallow="pedestrian tram rail_urban rail rail_electric rail_fast ship" speed="5.00" length="13.22" width="4.20" shape="44.20,91.55,272.79 46.04,89.25,272.82 47.34,86.45,272.85 48.11,83.15,272.89 48.34,79.36,272.93"/>
        <lane id=":NODE_16_1_1" index="1" disallow="pedestrian tram rail_urban rail rail_electric rail_fast ship" speed="5.00" length="14.84" width="3.00" shape="44.20,91.55,272.79 47.61,87.93,272.84 50.05,84.68,272.88 51.49,81.78,272.91 51.96,79.25,272.93"/>
    </edge>
    <edge id=":NODE_16_3" function="internal">
        <lane id=":NODE_16_3_0" index="0" disallow="pedestrian tram rail_urban rail rail_electric rail_fast ship" speed="5.00" length="20.88" width="7.00" shape="44.20,91.55,272.79 49.21,87.77,272.90 53.78,86.62,272.98 57.91,88.09,273.05 61.60,92.19,273.15"/>
    </edge>
    <edge id=":NODE_17_0" function="internal">
        <lane id=":NODE_17_0_0" index="0" disallow="pedestrian tram rail_urban rail rail_electric rail_fast ship" speed="5.00" length="14.23" width="3.46" shape="48.13,57.83,272.64 47.51,51.80,272.48 45.78,47.48,272.35 43.19,45.11,272.26"/>
    </edge>
    <edge id=":NODE_17_1" function="internal">
        <lane id=":NODE_17_1_0" index="0" disallow="pedestrian" speed="5.50" length="36.28" width="3.86" shape="48.13,57.83,272.64 48.99,21.57,271.98"/>
    </edge>
    <edge id=":NODE_17_2" function="internal">
        <lane id=":NODE_17_2_0" index="0" disallow="pedestrian tram rail_urban rail rail_electric rail_fast ship" speed="5.00" length="26.51" width="3.20" shape="51.73,57.81,272.64 52.58,47.21,272.50 55.38,39.63,272.39 60.14,35.07,272.31 61.31,34.81,272.29"/>
    </edge>
    <edge id=":NODE_17_14" function="internal">
        <lane id=":NODE_17_14_0" index="0" disallow="pedestrian tram rail_urban rail rail_electric rail_fast ship" speed="5.00" length="4.36" width="3.46" shape="43.19,45.11,272.26 42.95,44.89,272.25 39.01,44.02,272.14"/>
    </edge>
    <edge id=":NODE_17_15" function="internal">
        <lane id=":NODE_17_15_0" index="0" disallow="pedestrian tram rail_urban rail rail_electric rail_fast ship" speed="5.00" length="5.69" width="3.20" shape="61.31,34.81,272.29 66.85,33.54,272.22"/>
    </edge>
    <edge id=":NODE_17_3" function="internal">
        <lane id=":NODE_17_3_0" index="0" disallow="pedestrian" speed="5.00" length="21.12" width="5.26" shape="66.91,42.75,272.37 62.02,43.69,272.44 58.56,46.50,272.49 56.54,51.18,272.56 55.94,57.74,272.65"/>
    </edge>
    <edge id=":NODE_17_4" function="internal">
        <lane id=":NODE_17_4_0" index="0" disallow="pedestrian tram rail_urban rail rail_electric rail_fast ship" speed="5.00" length="27.95" width="3.46" shape="66.91,42.75,272.37 39.01,44.02,272.14"/>
        <lane id=":NODE_17_4_1" index="1" disallow="pedestrian tram rail_urban rail rail_electric rail_fast ship" speed="5.00" length="27.95" width="3.46" shape="66.91,42.75,272.37 39.02,40.56,272.14"/>
    </edge>
    <edge id=":NODE_17_6" function="internal">
        <lane id=":NODE_17_6_0" index="0" disallow="pedestrian" speed="5.50" length="27.89" width="3.86" shape="66.88,38.25,272.37 59.05,37.21,272.26 53.46,34.08,272.17 50.11,28.87,272.08 48.99,21.57,271.98"/>
    </edge>
    <edge id=":NODE_17_7" function="internal">
        <lane id=":NODE_17_7_0" index="0" disallow="pedestrian tram rail_urban rail rail_electric rail_fast ship" speed="5.50" length="11.91" width="3.20" shape="56.78,21.61,271.98 57.40,26.84,272.05 59.29,30.57,272.11 61.29,31.99,272.14"/>
    </edge>
    <edge id=":NODE_17_8" function="internal">
        <lane id=":NODE_17_8_0" index="0" disallow="pedestrian tram rail_urban rail rail_electric rail_fast ship" speed="5.50" length="36.15" width="5.26" shape="56.78,21.61,271.98 55.94,57.74,272.65"/>
    </edge>
    <edge id=":NODE_17_9" function="internal">
        <lane id=":NODE_17_9_0" index="0" disallow="pedestrian tram rail_urban rail rail_electric rail_fast ship" speed="5.50" length="25.35" width="3.46" shape="52.92,21.59,271.98 52.05,31.42,272.04 49.44,38.43,272.08 45.09,42.63,272.11 43.19,43.06,272.12"/>
        <lane id=":NODE_17_9_1" index="1" disallow="pedestrian tram rail_urban rail rail_electric rail_fast ship" speed="5.50" length="22.39" width="3.46" shape="52.92,21.59,271.98 52.05,29.90,272.03 49.44,35.83,272.07 45.10,39.39,272.11 43.20,39.75,272.12"/>
    </edge>